
This summary file was generated by TurbSim (from OpenFAST-v3.5.4) on 28-Aug-2025 at 15:44:06.


Runtime Options:

     13426  Random seed #1
    RANLUX  Type of random number generator
         F  Output binary HH turbulence parameters?
         F  Output formatted turbulence parameters?
         F  Output AeroDyn HH files?
         T  Output AeroDyn FF files?
         F  Output BLADED FF files?
         T  Output tower data?
         F  Output HAWC FF files?
         F  Output formatted FF files?
         T  Output coherent turbulence time step file?
 2 -   ALL  IEC turbulence models scaled to exact specified standard deviation


Turbine/Model Specifications:

        12  Vertical grid-point matrix dimension
        12  Horizontal grid-point matrix dimension
     0.050  Time step [seconds]
   660.000  Analysis time [seconds]
   660.000  Usable output time [seconds]
    90.000  Hub height [m]
   150.000  Grid height [m]
   150.000  Grid width [m]
     0.000  Vertical flow angle [degrees]
     0.000  Horizontal flow angle [degrees]


Meteorological Boundary Conditions:

    IECKAI  IEC Kaimal spectral model
         1  IEC standard: IEC 61400-1 Ed. 3: 2005
     8.000  Percent turbulence intensity, IEC 61400-1 Ed. 3: 2005
       NTM  IEC Normal Turbulence Model
       N/A  IEC Extreme Turbulence Model (ETM) "c" parameter [m/s]
       PL   Wind profile type
    90.000  Reference height [m]
     8.000  Reference wind speed [m/s]
       N/A  Jet height [m]
     0.200  Power law exponent
     0.030  Surface roughness length [m]


Non-IEC Meteorological Boundary Conditions:

       N/A  Site latitude [degrees]
       N/A  Gradient Richardson number
       N/A  Friction or shear velocity [m/s]
       N/A  Mixing layer depth [m]
       N/A  Mean hub u'w' Reynolds stress
       N/A  Mean hub u'v' Reynolds stress
       N/A  Mean hub v'w' Reynolds stress


Spatial Coherence Models:

       IEC  u-component coherence model
      NONE  v-component coherence model
      NONE  w-component coherence model
(   12.000, 0.353E-03)  u-component coherence parameters
                   N/A  v-component coherence parameters
                   N/A  w-component coherence parameters
       N/A  Coherence exponent


You have requested that the following file(s) be generated:

   SPW/v8/TI8.0/sd0/NREL_2p3_8_sh0.2_TI8.0_sd0.bts (AeroDyn/TurbSim full-field wind file)


Turbulence Simulation Scaling Parameter Summary:

   Turbulence model used                            =  IEC Kaimal
   Turbulence characteristic                        =  User-specified
   IEC standard                                     =  IEC 61400-1 Ed. 3: 2005
   Mean wind speed at hub height                    =    8.000 m/s
   Characteristic value of standard deviation       =    0.640 m/s
   Turbulence scale                                 =   42.000 m
   u-component integral scale                       =  340.200 m
   Coherency scale                                  =  340.200 m
   Characteristic value of hub turbulence intensity =    8.000%
   Gradient Richardson number                       =    0.000

   Wind profile type                                =  Power law
   Power law exponent                               =    0.200
   Mean shear across rotor disk                     =    0.023 (m/s)/m
   Assumed rotor diameter                           =  150.000 m
   Surface roughness length                         =    0.030 m

   Nyquist frequency of turbulent wind field        =   10.000 Hz

   Number of time steps in the FFT                  =    13200
   Number of time steps output                      =    13200
   Number of points simulated                       =      147


Mean Flow Angles:

   Vertical   =   0.0 degrees
   Horizontal =   0.0 degrees

Mean Wind Speed Profile:

   Height    Wind Speed   Horizontal Angle  Vertical Angle  U-comp (X)   V-comp (Y)   W-comp (Z)
     (m)        (m/s)         (degrees)       (degrees)       (m/s)        (m/s)        (m/s)   
   ------    ----------   ----------------  --------------  ----------   ----------   ----------
    165.0        9.03            0.00            0.00          9.03         0.00         0.00
    151.4        8.88            0.00            0.00          8.88         0.00         0.00
    137.7        8.71            0.00            0.00          8.71         0.00         0.00
    124.1        8.53            0.00            0.00          8.53         0.00         0.00
    110.5        8.33            0.00            0.00          8.33         0.00         0.00
     96.8        8.12            0.00            0.00          8.12         0.00         0.00
     90.0        8.00            0.00            0.00          8.00         0.00         0.00
     83.2        7.87            0.00            0.00          7.87         0.00         0.00
     69.5        7.60            0.00            0.00          7.60         0.00         0.00
     55.9        7.27            0.00            0.00          7.27         0.00         0.00
     42.3        6.88            0.00            0.00          6.88         0.00         0.00
     28.6        6.36            0.00            0.00          6.36         0.00         0.00
     15.0        5.59            0.00            0.00          5.59         0.00         0.00
      1.4        3.46            0.00            0.00          3.46         0.00         0.00


Harvested Random Seeds after Generation of the Random Numbers:

     27044325 K 1
            0 K 2


Scaling statistics from the hub grid point:

  Component  Target Sigma (m/s)  Simulated Sigma (m/s)  Scaling Factor
  ---------  ------------------  ---------------------  --------------
     u'             0.640                0.564                1.134
     v'             0.512                0.498                1.027
     w'             0.320                0.314                1.020


Hub-Height Simulated Turbulence Statistical Summary:

   Type of Wind        Min (m/s)   Mean (m/s)    Max (m/s)  Sigma (m/s)       TI (%)
   ----------------    ---------   ----------    ---------  -----------       ------
   Longitudinal (u)         6.11         8.00         9.73        0.640        8.000
   Lateral (v)             -1.77        -0.00         1.71        0.512        6.400
   Vertical (w)            -1.08         0.00         1.19        0.320        4.000
   U component              6.11         8.00         9.73        0.640        8.000
   V component             -1.77        -0.00         1.71        0.512        6.400
   W component             -1.08         0.00         1.19        0.320        4.000
   Horizontal (U&V)         6.13         8.02         9.73        0.643        8.028
   Total                    6.14         8.02         9.74        0.643        8.018

                       Min Reynolds     Mean Reynolds    Max Reynolds    Correlation
   Product             Stress (m/s)^2   Stress (m/s)^2   Stress (m/s)^2  Coefficient
   ----------------    --------------   --------------   --------------  -----------
   u'w'                     -1.193             0.012             1.367         0.058
   u'v'                     -1.803            -0.061             1.411        -0.185
   v'w'                     -1.236            -0.008             0.839        -0.051


   Friction Velocity (Ustar)  =      0.109 m/s
   Maximum Instantaneous TKE  =      2.057 (m/s)^2
   Maximum Instantaneous CTKE =      1.006 (m/s)^2


Grid Point Variance Summary:

   Y-coord  -75.00  -61.36  -47.73  -34.09  -20.45   -6.82    6.82   20.45   34.09   47.73   61.36   75.00

   Height   Standard deviation at grid points for the u component:
   165.00    0.640   0.640   0.640   0.640   0.640   0.640   0.640   0.640   0.640   0.640   0.640   0.640
   151.36    0.640   0.640   0.640   0.640   0.640   0.640   0.640   0.640   0.640   0.640   0.640   0.640
   137.73    0.640   0.640   0.640   0.640   0.640   0.640   0.640   0.640   0.640   0.640   0.640   0.640
   124.09    0.640   0.640   0.640   0.640   0.640   0.640   0.640   0.640   0.640   0.640   0.640   0.640
   110.45    0.640   0.640   0.640   0.640   0.640   0.640   0.640   0.640   0.640   0.640   0.640   0.640
    96.82    0.640   0.640   0.640   0.640   0.640   0.640   0.640   0.640   0.640   0.640   0.640   0.640
    83.18    0.640   0.640   0.640   0.640   0.640   0.640   0.640   0.640   0.640   0.640   0.640   0.640
    69.55    0.640   0.640   0.640   0.640   0.640   0.640   0.640   0.640   0.640   0.640   0.640   0.640
    55.91    0.640   0.640   0.640   0.640   0.640   0.640   0.640   0.640   0.640   0.640   0.640   0.640
    42.27    0.640   0.640   0.640   0.640   0.640   0.640   0.640   0.640   0.640   0.640   0.640   0.640
    28.64    0.640   0.640   0.640   0.640   0.640   0.640   0.640   0.640   0.640   0.640   0.640   0.640
    15.00    0.640   0.640   0.640   0.640   0.640   0.640   0.640   0.640   0.640   0.640   0.640   0.640

   Height   Standard deviation at grid points for the v component:
   165.00    0.512   0.512   0.512   0.512   0.512   0.512   0.512   0.512   0.512   0.512   0.512   0.512
   151.36    0.512   0.512   0.512   0.512   0.512   0.512   0.512   0.512   0.512   0.512   0.512   0.512
   137.73    0.512   0.512   0.512   0.512   0.512   0.512   0.512   0.512   0.512   0.512   0.512   0.512
   124.09    0.512   0.512   0.512   0.512   0.512   0.512   0.512   0.512   0.512   0.512   0.512   0.512
   110.45    0.512   0.512   0.512   0.512   0.512   0.512   0.512   0.512   0.512   0.512   0.512   0.512
    96.82    0.512   0.512   0.512   0.512   0.512   0.512   0.512   0.512   0.512   0.512   0.512   0.512
    83.18    0.512   0.512   0.512   0.512   0.512   0.512   0.512   0.512   0.512   0.512   0.512   0.512
    69.55    0.512   0.512   0.512   0.512   0.512   0.512   0.512   0.512   0.512   0.512   0.512   0.512
    55.91    0.512   0.512   0.512   0.512   0.512   0.512   0.512   0.512   0.512   0.512   0.512   0.512
    42.27    0.512   0.512   0.512   0.512   0.512   0.512   0.512   0.512   0.512   0.512   0.512   0.512
    28.64    0.512   0.512   0.512   0.512   0.512   0.512   0.512   0.512   0.512   0.512   0.512   0.512
    15.00    0.512   0.512   0.512   0.512   0.512   0.512   0.512   0.512   0.512   0.512   0.512   0.512

   Height   Standard deviation at grid points for the w component:
   165.00    0.320   0.320   0.320   0.320   0.320   0.320   0.320   0.320   0.320   0.320   0.320   0.320
   151.36    0.320   0.320   0.320   0.320   0.320   0.320   0.320   0.320   0.320   0.320   0.320   0.320
   137.73    0.320   0.320   0.320   0.320   0.320   0.320   0.320   0.320   0.320   0.320   0.320   0.320
   124.09    0.320   0.320   0.320   0.320   0.320   0.320   0.320   0.320   0.320   0.320   0.320   0.320
   110.45    0.320   0.320   0.320   0.320   0.320   0.320   0.320   0.320   0.320   0.320   0.320   0.320
    96.82    0.320   0.320   0.320   0.320   0.320   0.320   0.320   0.320   0.320   0.320   0.320   0.320
    83.18    0.320   0.320   0.320   0.320   0.320   0.320   0.320   0.320   0.320   0.320   0.320   0.320
    69.55    0.320   0.320   0.320   0.320   0.320   0.320   0.320   0.320   0.320   0.320   0.320   0.320
    55.91    0.320   0.320   0.320   0.320   0.320   0.320   0.320   0.320   0.320   0.320   0.320   0.320
    42.27    0.320   0.320   0.320   0.320   0.320   0.320   0.320   0.320   0.320   0.320   0.320   0.320
    28.64    0.320   0.320   0.320   0.320   0.320   0.320   0.320   0.320   0.320   0.320   0.320   0.320
    15.00    0.320   0.320   0.320   0.320   0.320   0.320   0.320   0.320   0.320   0.320   0.320   0.320

   Mean standard deviation across all grid points:
      u component:    0.640 m/s
      v component:    0.512 m/s
      w component:    0.320 m/s


U-component (X) statistics from the interpolated hub point:

   Mean =   7.9963 m/s
   TI   =   6.7080 %


Processing complete.  1 CPU seconds used.
