
This summary file was generated by TurbSim (from OpenFAST-v3.5.4) on 27-Aug-2025 at 16:32:01.


Runtime Options:

     13426  Random seed #1
    RANLUX  Type of random number generator
         F  Output binary HH turbulence parameters?
         F  Output formatted turbulence parameters?
         F  Output AeroDyn HH files?
         T  Output AeroDyn FF files?
         F  Output BLADED FF files?
         T  Output tower data?
         F  Output HAWC FF files?
         F  Output formatted FF files?
         F  Output coherent turbulence time step file?
 2 -   ALL  IEC turbulence models scaled to exact specified standard deviation


Turbine/Model Specifications:

        31  Vertical grid-point matrix dimension
        31  Horizontal grid-point matrix dimension
     0.050  Time step [seconds]
   660.000  Analysis time [seconds]
   660.000  Usable output time [seconds]
    90.000  Hub height [m]
   145.000  Grid height [m]
   145.000  Grid width [m]
     0.000  Vertical flow angle [degrees]
     0.000  Horizontal flow angle [degrees]


Meteorological Boundary Conditions:

    IECKAI  IEC Kaimal spectral model
         1  IEC standard: IEC 61400-1 Ed. 3: 2005
     8.000  Percent turbulence intensity, IEC 61400-1 Ed. 3: 2005
       NTM  IEC Normal Turbulence Model
       N/A  IEC Extreme Turbulence Model (ETM) "c" parameter [m/s]
       PL   Wind profile type
    90.000  Reference height [m]
     7.000  Reference wind speed [m/s]
       N/A  Jet height [m]
     0.200  Power law exponent
     0.030  Surface roughness length [m]


Non-IEC Meteorological Boundary Conditions:

       N/A  Site latitude [degrees]
       N/A  Gradient Richardson number
       N/A  Friction or shear velocity [m/s]
       N/A  Mixing layer depth [m]
       N/A  Mean hub u'w' Reynolds stress
       N/A  Mean hub u'v' Reynolds stress
       N/A  Mean hub v'w' Reynolds stress


Spatial Coherence Models:

       IEC  u-component coherence model
      NONE  v-component coherence model
      NONE  w-component coherence model
(   12.000, 0.353E-03)  u-component coherence parameters
                   N/A  v-component coherence parameters
                   N/A  w-component coherence parameters
       N/A  Coherence exponent


You have requested that the following file(s) be generated:

   SPW/v7/TI8.0/sd0/NREL5MW_7_sh0.2_TI8.0_sd0.bts (AeroDyn/TurbSim full-field wind file)


Turbulence Simulation Scaling Parameter Summary:

   Turbulence model used                            =  IEC Kaimal
   Turbulence characteristic                        =  User-specified
   IEC standard                                     =  IEC 61400-1 Ed. 3: 2005
   Mean wind speed at hub height                    =    7.000 m/s
   Characteristic value of standard deviation       =    0.560 m/s
   Turbulence scale                                 =   42.000 m
   u-component integral scale                       =  340.200 m
   Coherency scale                                  =  340.200 m
   Characteristic value of hub turbulence intensity =    8.000%
   Gradient Richardson number                       =    0.000

   Wind profile type                                =  Power law
   Power law exponent                               =    0.200
   Mean shear across rotor disk                     =    0.020 (m/s)/m
   Assumed rotor diameter                           =  145.000 m
   Surface roughness length                         =    0.030 m

   Nyquist frequency of turbulent wind field        =   10.000 Hz

   Number of time steps in the FFT                  =    13200
   Number of time steps output                      =    13200
   Number of points simulated                       =      964


Mean Flow Angles:

   Vertical   =   0.0 degrees
   Horizontal =   0.0 degrees

Mean Wind Speed Profile:

   Height    Wind Speed   Horizontal Angle  Vertical Angle  U-comp (X)   V-comp (Y)   W-comp (Z)
     (m)        (m/s)         (degrees)       (degrees)       (m/s)        (m/s)        (m/s)   
   ------    ----------   ----------------  --------------  ----------   ----------   ----------
    162.5        7.88            0.00            0.00          7.88         0.00         0.00
    157.7        7.83            0.00            0.00          7.83         0.00         0.00
    152.8        7.78            0.00            0.00          7.78         0.00         0.00
    148.0        7.73            0.00            0.00          7.73         0.00         0.00
    143.2        7.68            0.00            0.00          7.68         0.00         0.00
    138.3        7.63            0.00            0.00          7.63         0.00         0.00
    133.5        7.57            0.00            0.00          7.57         0.00         0.00
    128.7        7.52            0.00            0.00          7.52         0.00         0.00
    123.8        7.46            0.00            0.00          7.46         0.00         0.00
    119.0        7.40            0.00            0.00          7.40         0.00         0.00
    114.2        7.34            0.00            0.00          7.34         0.00         0.00
    109.3        7.28            0.00            0.00          7.28         0.00         0.00
    104.5        7.21            0.00            0.00          7.21         0.00         0.00
     99.7        7.14            0.00            0.00          7.14         0.00         0.00
     94.8        7.07            0.00            0.00          7.07         0.00         0.00
     90.0        7.00            0.00            0.00          7.00         0.00         0.00
     85.2        6.92            0.00            0.00          6.92         0.00         0.00
     80.3        6.84            0.00            0.00          6.84         0.00         0.00
     75.5        6.76            0.00            0.00          6.76         0.00         0.00
     70.7        6.67            0.00            0.00          6.67         0.00         0.00
     65.8        6.58            0.00            0.00          6.58         0.00         0.00
     61.0        6.48            0.00            0.00          6.48         0.00         0.00
     56.2        6.37            0.00            0.00          6.37         0.00         0.00
     51.3        6.26            0.00            0.00          6.26         0.00         0.00
     46.5        6.13            0.00            0.00          6.13         0.00         0.00
     41.7        6.00            0.00            0.00          6.00         0.00         0.00
     36.8        5.85            0.00            0.00          5.85         0.00         0.00
     32.0        5.69            0.00            0.00          5.69         0.00         0.00
     27.2        5.51            0.00            0.00          5.51         0.00         0.00
     22.3        5.30            0.00            0.00          5.30         0.00         0.00
     17.5        5.04            0.00            0.00          5.04         0.00         0.00
     12.7        4.73            0.00            0.00          4.73         0.00         0.00
      7.8        4.30            0.00            0.00          4.30         0.00         0.00
      3.0        3.55            0.00            0.00          3.55         0.00         0.00


Harvested Random Seeds after Generation of the Random Numbers:

    177351900 K 1
            0 K 2


Scaling statistics from the hub grid point:

  Component  Target Sigma (m/s)  Simulated Sigma (m/s)  Scaling Factor
  ---------  ------------------  ---------------------  --------------
     u'             0.560                0.550                1.019
     v'             0.448                0.435                1.030
     w'             0.280                0.275                1.019


Hub-Height Simulated Turbulence Statistical Summary:

   Type of Wind        Min (m/s)   Mean (m/s)    Max (m/s)  Sigma (m/s)       TI (%)
   ----------------    ---------   ----------    ---------  -----------       ------
   Longitudinal (u)         5.52         7.00         8.73        0.560        8.000
   Lateral (v)             -1.53        -0.00         1.74        0.448        6.400
   Vertical (w)            -1.13         0.00         0.94        0.280        4.000
   U component              5.52         7.00         8.73        0.560        8.000
   V component             -1.53        -0.00         1.74        0.448        6.400
   W component             -1.13         0.00         0.94        0.280        4.000
   Horizontal (U&V)         5.54         7.01         8.73        0.556        7.931
   Total                    5.54         7.02         8.74        0.556        7.921

                       Min Reynolds     Mean Reynolds    Max Reynolds    Correlation
   Product             Stress (m/s)^2   Stress (m/s)^2   Stress (m/s)^2  Coefficient
   ----------------    --------------   --------------   --------------  -----------
   u'w'                     -0.961             0.002             1.083         0.015
   u'v'                     -1.510            -0.007             1.349        -0.027
   v'w'                     -0.823             0.002             0.771         0.016


   Friction Velocity (Ustar)  =      0.049 m/s
   Maximum Instantaneous TKE  =      1.900 (m/s)^2
   Maximum Instantaneous CTKE =      0.789 (m/s)^2


Grid Point Variance Summary:

   Y-coord  -72.50  -67.67  -62.83  -58.00  -53.17  -48.33  -43.50  -38.67  -33.83  -29.00  -24.17  -19.33  -14.50   -9.67   -4.83    0.00    4.83    9.67   14.50   19.33   24.17   29.00   33.83   38.67   43.50   48.33   53.17   58.00   62.83   67.67   72.50

   Height   Standard deviation at grid points for the u component:
   162.50    0.560   0.560   0.560   0.560   0.560   0.560   0.560   0.560   0.560   0.560   0.560   0.560   0.560   0.560   0.560   0.560   0.560   0.560   0.560   0.560   0.560   0.560   0.560   0.560   0.560   0.560   0.560   0.560   0.560   0.560   0.560
   157.67    0.560   0.560   0.560   0.560   0.560   0.560   0.560   0.560   0.560   0.560   0.560   0.560   0.560   0.560   0.560   0.560   0.560   0.560   0.560   0.560   0.560   0.560   0.560   0.560   0.560   0.560   0.560   0.560   0.560   0.560   0.560
   152.83    0.560   0.560   0.560   0.560   0.560   0.560   0.560   0.560   0.560   0.560   0.560   0.560   0.560   0.560   0.560   0.560   0.560   0.560   0.560   0.560   0.560   0.560   0.560   0.560   0.560   0.560   0.560   0.560   0.560   0.560   0.560
   148.00    0.560   0.560   0.560   0.560   0.560   0.560   0.560   0.560   0.560   0.560   0.560   0.560   0.560   0.560   0.560   0.560   0.560   0.560   0.560   0.560   0.560   0.560   0.560   0.560   0.560   0.560   0.560   0.560   0.560   0.560   0.560
   143.17    0.560   0.560   0.560   0.560   0.560   0.560   0.560   0.560   0.560   0.560   0.560   0.560   0.560   0.560   0.560   0.560   0.560   0.560   0.560   0.560   0.560   0.560   0.560   0.560   0.560   0.560   0.560   0.560   0.560   0.560   0.560
   138.33    0.560   0.560   0.560   0.560   0.560   0.560   0.560   0.560   0.560   0.560   0.560   0.560   0.560   0.560   0.560   0.560   0.560   0.560   0.560   0.560   0.560   0.560   0.560   0.560   0.560   0.560   0.560   0.560   0.560   0.560   0.560
   133.50    0.560   0.560   0.560   0.560   0.560   0.560   0.560   0.560   0.560   0.560   0.560   0.560   0.560   0.560   0.560   0.560   0.560   0.560   0.560   0.560   0.560   0.560   0.560   0.560   0.560   0.560   0.560   0.560   0.560   0.560   0.560
   128.67    0.560   0.560   0.560   0.560   0.560   0.560   0.560   0.560   0.560   0.560   0.560   0.560   0.560   0.560   0.560   0.560   0.560   0.560   0.560   0.560   0.560   0.560   0.560   0.560   0.560   0.560   0.560   0.560   0.560   0.560   0.560
   123.83    0.560   0.560   0.560   0.560   0.560   0.560   0.560   0.560   0.560   0.560   0.560   0.560   0.560   0.560   0.560   0.560   0.560   0.560   0.560   0.560   0.560   0.560   0.560   0.560   0.560   0.560   0.560   0.560   0.560   0.560   0.560
   119.00    0.560   0.560   0.560   0.560   0.560   0.560   0.560   0.560   0.560   0.560   0.560   0.560   0.560   0.560   0.560   0.560   0.560   0.560   0.560   0.560   0.560   0.560   0.560   0.560   0.560   0.560   0.560   0.560   0.560   0.560   0.560
   114.17    0.560   0.560   0.560   0.560   0.560   0.560   0.560   0.560   0.560   0.560   0.560   0.560   0.560   0.560   0.560   0.560   0.560   0.560   0.560   0.560   0.560   0.560   0.560   0.560   0.560   0.560   0.560   0.560   0.560   0.560   0.560
   109.33    0.560   0.560   0.560   0.560   0.560   0.560   0.560   0.560   0.560   0.560   0.560   0.560   0.560   0.560   0.560   0.560   0.560   0.560   0.560   0.560   0.560   0.560   0.560   0.560   0.560   0.560   0.560   0.560   0.560   0.560   0.560
   104.50    0.560   0.560   0.560   0.560   0.560   0.560   0.560   0.560   0.560   0.560   0.560   0.560   0.560   0.560   0.560   0.560   0.560   0.560   0.560   0.560   0.560   0.560   0.560   0.560   0.560   0.560   0.560   0.560   0.560   0.560   0.560
    99.67    0.560   0.560   0.560   0.560   0.560   0.560   0.560   0.560   0.560   0.560   0.560   0.560   0.560   0.560   0.560   0.560   0.560   0.560   0.560   0.560   0.560   0.560   0.560   0.560   0.560   0.560   0.560   0.560   0.560   0.560   0.560
    94.83    0.560   0.560   0.560   0.560   0.560   0.560   0.560   0.560   0.560   0.560   0.560   0.560   0.560   0.560   0.560   0.560   0.560   0.560   0.560   0.560   0.560   0.560   0.560   0.560   0.560   0.560   0.560   0.560   0.560   0.560   0.560
    90.00    0.560   0.560   0.560   0.560   0.560   0.560   0.560   0.560   0.560   0.560   0.560   0.560   0.560   0.560   0.560   0.560   0.560   0.560   0.560   0.560   0.560   0.560   0.560   0.560   0.560   0.560   0.560   0.560   0.560   0.560   0.560
    85.17    0.560   0.560   0.560   0.560   0.560   0.560   0.560   0.560   0.560   0.560   0.560   0.560   0.560   0.560   0.560   0.560   0.560   0.560   0.560   0.560   0.560   0.560   0.560   0.560   0.560   0.560   0.560   0.560   0.560   0.560   0.560
    80.33    0.560   0.560   0.560   0.560   0.560   0.560   0.560   0.560   0.560   0.560   0.560   0.560   0.560   0.560   0.560   0.560   0.560   0.560   0.560   0.560   0.560   0.560   0.560   0.560   0.560   0.560   0.560   0.560   0.560   0.560   0.560
    75.50    0.560   0.560   0.560   0.560   0.560   0.560   0.560   0.560   0.560   0.560   0.560   0.560   0.560   0.560   0.560   0.560   0.560   0.560   0.560   0.560   0.560   0.560   0.560   0.560   0.560   0.560   0.560   0.560   0.560   0.560   0.560
    70.67    0.560   0.560   0.560   0.560   0.560   0.560   0.560   0.560   0.560   0.560   0.560   0.560   0.560   0.560   0.560   0.560   0.560   0.560   0.560   0.560   0.560   0.560   0.560   0.560   0.560   0.560   0.560   0.560   0.560   0.560   0.560
    65.83    0.560   0.560   0.560   0.560   0.560   0.560   0.560   0.560   0.560   0.560   0.560   0.560   0.560   0.560   0.560   0.560   0.560   0.560   0.560   0.560   0.560   0.560   0.560   0.560   0.560   0.560   0.560   0.560   0.560   0.560   0.560
    61.00    0.560   0.560   0.560   0.560   0.560   0.560   0.560   0.560   0.560   0.560   0.560   0.560   0.560   0.560   0.560   0.560   0.560   0.560   0.560   0.560   0.560   0.560   0.560   0.560   0.560   0.560   0.560   0.560   0.560   0.560   0.560
    56.17    0.560   0.560   0.560   0.560   0.560   0.560   0.560   0.560   0.560   0.560   0.560   0.560   0.560   0.560   0.560   0.560   0.560   0.560   0.560   0.560   0.560   0.560   0.560   0.560   0.560   0.560   0.560   0.560   0.560   0.560   0.560
    51.33    0.560   0.560   0.560   0.560   0.560   0.560   0.560   0.560   0.560   0.560   0.560   0.560   0.560   0.560   0.560   0.560   0.560   0.560   0.560   0.560   0.560   0.560   0.560   0.560   0.560   0.560   0.560   0.560   0.560   0.560   0.560
    46.50    0.560   0.560   0.560   0.560   0.560   0.560   0.560   0.560   0.560   0.560   0.560   0.560   0.560   0.560   0.560   0.560   0.560   0.560   0.560   0.560   0.560   0.560   0.560   0.560   0.560   0.560   0.560   0.560   0.560   0.560   0.560
    41.67    0.560   0.560   0.560   0.560   0.560   0.560   0.560   0.560   0.560   0.560   0.560   0.560   0.560   0.560   0.560   0.560   0.560   0.560   0.560   0.560   0.560   0.560   0.560   0.560   0.560   0.560   0.560   0.560   0.560   0.560   0.560
    36.83    0.560   0.560   0.560   0.560   0.560   0.560   0.560   0.560   0.560   0.560   0.560   0.560   0.560   0.560   0.560   0.560   0.560   0.560   0.560   0.560   0.560   0.560   0.560   0.560   0.560   0.560   0.560   0.560   0.560   0.560   0.560
    32.00    0.560   0.560   0.560   0.560   0.560   0.560   0.560   0.560   0.560   0.560   0.560   0.560   0.560   0.560   0.560   0.560   0.560   0.560   0.560   0.560   0.560   0.560   0.560   0.560   0.560   0.560   0.560   0.560   0.560   0.560   0.560
    27.17    0.560   0.560   0.560   0.560   0.560   0.560   0.560   0.560   0.560   0.560   0.560   0.560   0.560   0.560   0.560   0.560   0.560   0.560   0.560   0.560   0.560   0.560   0.560   0.560   0.560   0.560   0.560   0.560   0.560   0.560   0.560
    22.33    0.560   0.560   0.560   0.560   0.560   0.560   0.560   0.560   0.560   0.560   0.560   0.560   0.560   0.560   0.560   0.560   0.560   0.560   0.560   0.560   0.560   0.560   0.560   0.560   0.560   0.560   0.560   0.560   0.560   0.560   0.560
    17.50    0.560   0.560   0.560   0.560   0.560   0.560   0.560   0.560   0.560   0.560   0.560   0.560   0.560   0.560   0.560   0.560   0.560   0.560   0.560   0.560   0.560   0.560   0.560   0.560   0.560   0.560   0.560   0.560   0.560   0.560   0.560

   Height   Standard deviation at grid points for the v component:
   162.50    0.448   0.448   0.448   0.448   0.448   0.448   0.448   0.448   0.448   0.448   0.448   0.448   0.448   0.448   0.448   0.448   0.448   0.448   0.448   0.448   0.448   0.448   0.448   0.448   0.448   0.448   0.448   0.448   0.448   0.448   0.448
   157.67    0.448   0.448   0.448   0.448   0.448   0.448   0.448   0.448   0.448   0.448   0.448   0.448   0.448   0.448   0.448   0.448   0.448   0.448   0.448   0.448   0.448   0.448   0.448   0.448   0.448   0.448   0.448   0.448   0.448   0.448   0.448
   152.83    0.448   0.448   0.448   0.448   0.448   0.448   0.448   0.448   0.448   0.448   0.448   0.448   0.448   0.448   0.448   0.448   0.448   0.448   0.448   0.448   0.448   0.448   0.448   0.448   0.448   0.448   0.448   0.448   0.448   0.448   0.448
   148.00    0.448   0.448   0.448   0.448   0.448   0.448   0.448   0.448   0.448   0.448   0.448   0.448   0.448   0.448   0.448   0.448   0.448   0.448   0.448   0.448   0.448   0.448   0.448   0.448   0.448   0.448   0.448   0.448   0.448   0.448   0.448
   143.17    0.448   0.448   0.448   0.448   0.448   0.448   0.448   0.448   0.448   0.448   0.448   0.448   0.448   0.448   0.448   0.448   0.448   0.448   0.448   0.448   0.448   0.448   0.448   0.448   0.448   0.448   0.448   0.448   0.448   0.448   0.448
   138.33    0.448   0.448   0.448   0.448   0.448   0.448   0.448   0.448   0.448   0.448   0.448   0.448   0.448   0.448   0.448   0.448   0.448   0.448   0.448   0.448   0.448   0.448   0.448   0.448   0.448   0.448   0.448   0.448   0.448   0.448   0.448
   133.50    0.448   0.448   0.448   0.448   0.448   0.448   0.448   0.448   0.448   0.448   0.448   0.448   0.448   0.448   0.448   0.448   0.448   0.448   0.448   0.448   0.448   0.448   0.448   0.448   0.448   0.448   0.448   0.448   0.448   0.448   0.448
   128.67    0.448   0.448   0.448   0.448   0.448   0.448   0.448   0.448   0.448   0.448   0.448   0.448   0.448   0.448   0.448   0.448   0.448   0.448   0.448   0.448   0.448   0.448   0.448   0.448   0.448   0.448   0.448   0.448   0.448   0.448   0.448
   123.83    0.448   0.448   0.448   0.448   0.448   0.448   0.448   0.448   0.448   0.448   0.448   0.448   0.448   0.448   0.448   0.448   0.448   0.448   0.448   0.448   0.448   0.448   0.448   0.448   0.448   0.448   0.448   0.448   0.448   0.448   0.448
   119.00    0.448   0.448   0.448   0.448   0.448   0.448   0.448   0.448   0.448   0.448   0.448   0.448   0.448   0.448   0.448   0.448   0.448   0.448   0.448   0.448   0.448   0.448   0.448   0.448   0.448   0.448   0.448   0.448   0.448   0.448   0.448
   114.17    0.448   0.448   0.448   0.448   0.448   0.448   0.448   0.448   0.448   0.448   0.448   0.448   0.448   0.448   0.448   0.448   0.448   0.448   0.448   0.448   0.448   0.448   0.448   0.448   0.448   0.448   0.448   0.448   0.448   0.448   0.448
   109.33    0.448   0.448   0.448   0.448   0.448   0.448   0.448   0.448   0.448   0.448   0.448   0.448   0.448   0.448   0.448   0.448   0.448   0.448   0.448   0.448   0.448   0.448   0.448   0.448   0.448   0.448   0.448   0.448   0.448   0.448   0.448
   104.50    0.448   0.448   0.448   0.448   0.448   0.448   0.448   0.448   0.448   0.448   0.448   0.448   0.448   0.448   0.448   0.448   0.448   0.448   0.448   0.448   0.448   0.448   0.448   0.448   0.448   0.448   0.448   0.448   0.448   0.448   0.448
    99.67    0.448   0.448   0.448   0.448   0.448   0.448   0.448   0.448   0.448   0.448   0.448   0.448   0.448   0.448   0.448   0.448   0.448   0.448   0.448   0.448   0.448   0.448   0.448   0.448   0.448   0.448   0.448   0.448   0.448   0.448   0.448
    94.83    0.448   0.448   0.448   0.448   0.448   0.448   0.448   0.448   0.448   0.448   0.448   0.448   0.448   0.448   0.448   0.448   0.448   0.448   0.448   0.448   0.448   0.448   0.448   0.448   0.448   0.448   0.448   0.448   0.448   0.448   0.448
    90.00    0.448   0.448   0.448   0.448   0.448   0.448   0.448   0.448   0.448   0.448   0.448   0.448   0.448   0.448   0.448   0.448   0.448   0.448   0.448   0.448   0.448   0.448   0.448   0.448   0.448   0.448   0.448   0.448   0.448   0.448   0.448
    85.17    0.448   0.448   0.448   0.448   0.448   0.448   0.448   0.448   0.448   0.448   0.448   0.448   0.448   0.448   0.448   0.448   0.448   0.448   0.448   0.448   0.448   0.448   0.448   0.448   0.448   0.448   0.448   0.448   0.448   0.448   0.448
    80.33    0.448   0.448   0.448   0.448   0.448   0.448   0.448   0.448   0.448   0.448   0.448   0.448   0.448   0.448   0.448   0.448   0.448   0.448   0.448   0.448   0.448   0.448   0.448   0.448   0.448   0.448   0.448   0.448   0.448   0.448   0.448
    75.50    0.448   0.448   0.448   0.448   0.448   0.448   0.448   0.448   0.448   0.448   0.448   0.448   0.448   0.448   0.448   0.448   0.448   0.448   0.448   0.448   0.448   0.448   0.448   0.448   0.448   0.448   0.448   0.448   0.448   0.448   0.448
    70.67    0.448   0.448   0.448   0.448   0.448   0.448   0.448   0.448   0.448   0.448   0.448   0.448   0.448   0.448   0.448   0.448   0.448   0.448   0.448   0.448   0.448   0.448   0.448   0.448   0.448   0.448   0.448   0.448   0.448   0.448   0.448
    65.83    0.448   0.448   0.448   0.448   0.448   0.448   0.448   0.448   0.448   0.448   0.448   0.448   0.448   0.448   0.448   0.448   0.448   0.448   0.448   0.448   0.448   0.448   0.448   0.448   0.448   0.448   0.448   0.448   0.448   0.448   0.448
    61.00    0.448   0.448   0.448   0.448   0.448   0.448   0.448   0.448   0.448   0.448   0.448   0.448   0.448   0.448   0.448   0.448   0.448   0.448   0.448   0.448   0.448   0.448   0.448   0.448   0.448   0.448   0.448   0.448   0.448   0.448   0.448
    56.17    0.448   0.448   0.448   0.448   0.448   0.448   0.448   0.448   0.448   0.448   0.448   0.448   0.448   0.448   0.448   0.448   0.448   0.448   0.448   0.448   0.448   0.448   0.448   0.448   0.448   0.448   0.448   0.448   0.448   0.448   0.448
    51.33    0.448   0.448   0.448   0.448   0.448   0.448   0.448   0.448   0.448   0.448   0.448   0.448   0.448   0.448   0.448   0.448   0.448   0.448   0.448   0.448   0.448   0.448   0.448   0.448   0.448   0.448   0.448   0.448   0.448   0.448   0.448
    46.50    0.448   0.448   0.448   0.448   0.448   0.448   0.448   0.448   0.448   0.448   0.448   0.448   0.448   0.448   0.448   0.448   0.448   0.448   0.448   0.448   0.448   0.448   0.448   0.448   0.448   0.448   0.448   0.448   0.448   0.448   0.448
    41.67    0.448   0.448   0.448   0.448   0.448   0.448   0.448   0.448   0.448   0.448   0.448   0.448   0.448   0.448   0.448   0.448   0.448   0.448   0.448   0.448   0.448   0.448   0.448   0.448   0.448   0.448   0.448   0.448   0.448   0.448   0.448
    36.83    0.448   0.448   0.448   0.448   0.448   0.448   0.448   0.448   0.448   0.448   0.448   0.448   0.448   0.448   0.448   0.448   0.448   0.448   0.448   0.448   0.448   0.448   0.448   0.448   0.448   0.448   0.448   0.448   0.448   0.448   0.448
    32.00    0.448   0.448   0.448   0.448   0.448   0.448   0.448   0.448   0.448   0.448   0.448   0.448   0.448   0.448   0.448   0.448   0.448   0.448   0.448   0.448   0.448   0.448   0.448   0.448   0.448   0.448   0.448   0.448   0.448   0.448   0.448
    27.17    0.448   0.448   0.448   0.448   0.448   0.448   0.448   0.448   0.448   0.448   0.448   0.448   0.448   0.448   0.448   0.448   0.448   0.448   0.448   0.448   0.448   0.448   0.448   0.448   0.448   0.448   0.448   0.448   0.448   0.448   0.448
    22.33    0.448   0.448   0.448   0.448   0.448   0.448   0.448   0.448   0.448   0.448   0.448   0.448   0.448   0.448   0.448   0.448   0.448   0.448   0.448   0.448   0.448   0.448   0.448   0.448   0.448   0.448   0.448   0.448   0.448   0.448   0.448
    17.50    0.448   0.448   0.448   0.448   0.448   0.448   0.448   0.448   0.448   0.448   0.448   0.448   0.448   0.448   0.448   0.448   0.448   0.448   0.448   0.448   0.448   0.448   0.448   0.448   0.448   0.448   0.448   0.448   0.448   0.448   0.448

   Height   Standard deviation at grid points for the w component:
   162.50    0.280   0.280   0.280   0.280   0.280   0.280   0.280   0.280   0.280   0.280   0.280   0.280   0.280   0.280   0.280   0.280   0.280   0.280   0.280   0.280   0.280   0.280   0.280   0.280   0.280   0.280   0.280   0.280   0.280   0.280   0.280
   157.67    0.280   0.280   0.280   0.280   0.280   0.280   0.280   0.280   0.280   0.280   0.280   0.280   0.280   0.280   0.280   0.280   0.280   0.280   0.280   0.280   0.280   0.280   0.280   0.280   0.280   0.280   0.280   0.280   0.280   0.280   0.280
   152.83    0.280   0.280   0.280   0.280   0.280   0.280   0.280   0.280   0.280   0.280   0.280   0.280   0.280   0.280   0.280   0.280   0.280   0.280   0.280   0.280   0.280   0.280   0.280   0.280   0.280   0.280   0.280   0.280   0.280   0.280   0.280
   148.00    0.280   0.280   0.280   0.280   0.280   0.280   0.280   0.280   0.280   0.280   0.280   0.280   0.280   0.280   0.280   0.280   0.280   0.280   0.280   0.280   0.280   0.280   0.280   0.280   0.280   0.280   0.280   0.280   0.280   0.280   0.280
   143.17    0.280   0.280   0.280   0.280   0.280   0.280   0.280   0.280   0.280   0.280   0.280   0.280   0.280   0.280   0.280   0.280   0.280   0.280   0.280   0.280   0.280   0.280   0.280   0.280   0.280   0.280   0.280   0.280   0.280   0.280   0.280
   138.33    0.280   0.280   0.280   0.280   0.280   0.280   0.280   0.280   0.280   0.280   0.280   0.280   0.280   0.280   0.280   0.280   0.280   0.280   0.280   0.280   0.280   0.280   0.280   0.280   0.280   0.280   0.280   0.280   0.280   0.280   0.280
   133.50    0.280   0.280   0.280   0.280   0.280   0.280   0.280   0.280   0.280   0.280   0.280   0.280   0.280   0.280   0.280   0.280   0.280   0.280   0.280   0.280   0.280   0.280   0.280   0.280   0.280   0.280   0.280   0.280   0.280   0.280   0.280
   128.67    0.280   0.280   0.280   0.280   0.280   0.280   0.280   0.280   0.280   0.280   0.280   0.280   0.280   0.280   0.280   0.280   0.280   0.280   0.280   0.280   0.280   0.280   0.280   0.280   0.280   0.280   0.280   0.280   0.280   0.280   0.280
   123.83    0.280   0.280   0.280   0.280   0.280   0.280   0.280   0.280   0.280   0.280   0.280   0.280   0.280   0.280   0.280   0.280   0.280   0.280   0.280   0.280   0.280   0.280   0.280   0.280   0.280   0.280   0.280   0.280   0.280   0.280   0.280
   119.00    0.280   0.280   0.280   0.280   0.280   0.280   0.280   0.280   0.280   0.280   0.280   0.280   0.280   0.280   0.280   0.280   0.280   0.280   0.280   0.280   0.280   0.280   0.280   0.280   0.280   0.280   0.280   0.280   0.280   0.280   0.280
   114.17    0.280   0.280   0.280   0.280   0.280   0.280   0.280   0.280   0.280   0.280   0.280   0.280   0.280   0.280   0.280   0.280   0.280   0.280   0.280   0.280   0.280   0.280   0.280   0.280   0.280   0.280   0.280   0.280   0.280   0.280   0.280
   109.33    0.280   0.280   0.280   0.280   0.280   0.280   0.280   0.280   0.280   0.280   0.280   0.280   0.280   0.280   0.280   0.280   0.280   0.280   0.280   0.280   0.280   0.280   0.280   0.280   0.280   0.280   0.280   0.280   0.280   0.280   0.280
   104.50    0.280   0.280   0.280   0.280   0.280   0.280   0.280   0.280   0.280   0.280   0.280   0.280   0.280   0.280   0.280   0.280   0.280   0.280   0.280   0.280   0.280   0.280   0.280   0.280   0.280   0.280   0.280   0.280   0.280   0.280   0.280
    99.67    0.280   0.280   0.280   0.280   0.280   0.280   0.280   0.280   0.280   0.280   0.280   0.280   0.280   0.280   0.280   0.280   0.280   0.280   0.280   0.280   0.280   0.280   0.280   0.280   0.280   0.280   0.280   0.280   0.280   0.280   0.280
    94.83    0.280   0.280   0.280   0.280   0.280   0.280   0.280   0.280   0.280   0.280   0.280   0.280   0.280   0.280   0.280   0.280   0.280   0.280   0.280   0.280   0.280   0.280   0.280   0.280   0.280   0.280   0.280   0.280   0.280   0.280   0.280
    90.00    0.280   0.280   0.280   0.280   0.280   0.280   0.280   0.280   0.280   0.280   0.280   0.280   0.280   0.280   0.280   0.280   0.280   0.280   0.280   0.280   0.280   0.280   0.280   0.280   0.280   0.280   0.280   0.280   0.280   0.280   0.280
    85.17    0.280   0.280   0.280   0.280   0.280   0.280   0.280   0.280   0.280   0.280   0.280   0.280   0.280   0.280   0.280   0.280   0.280   0.280   0.280   0.280   0.280   0.280   0.280   0.280   0.280   0.280   0.280   0.280   0.280   0.280   0.280
    80.33    0.280   0.280   0.280   0.280   0.280   0.280   0.280   0.280   0.280   0.280   0.280   0.280   0.280   0.280   0.280   0.280   0.280   0.280   0.280   0.280   0.280   0.280   0.280   0.280   0.280   0.280   0.280   0.280   0.280   0.280   0.280
    75.50    0.280   0.280   0.280   0.280   0.280   0.280   0.280   0.280   0.280   0.280   0.280   0.280   0.280   0.280   0.280   0.280   0.280   0.280   0.280   0.280   0.280   0.280   0.280   0.280   0.280   0.280   0.280   0.280   0.280   0.280   0.280
    70.67    0.280   0.280   0.280   0.280   0.280   0.280   0.280   0.280   0.280   0.280   0.280   0.280   0.280   0.280   0.280   0.280   0.280   0.280   0.280   0.280   0.280   0.280   0.280   0.280   0.280   0.280   0.280   0.280   0.280   0.280   0.280
    65.83    0.280   0.280   0.280   0.280   0.280   0.280   0.280   0.280   0.280   0.280   0.280   0.280   0.280   0.280   0.280   0.280   0.280   0.280   0.280   0.280   0.280   0.280   0.280   0.280   0.280   0.280   0.280   0.280   0.280   0.280   0.280
    61.00    0.280   0.280   0.280   0.280   0.280   0.280   0.280   0.280   0.280   0.280   0.280   0.280   0.280   0.280   0.280   0.280   0.280   0.280   0.280   0.280   0.280   0.280   0.280   0.280   0.280   0.280   0.280   0.280   0.280   0.280   0.280
    56.17    0.280   0.280   0.280   0.280   0.280   0.280   0.280   0.280   0.280   0.280   0.280   0.280   0.280   0.280   0.280   0.280   0.280   0.280   0.280   0.280   0.280   0.280   0.280   0.280   0.280   0.280   0.280   0.280   0.280   0.280   0.280
    51.33    0.280   0.280   0.280   0.280   0.280   0.280   0.280   0.280   0.280   0.280   0.280   0.280   0.280   0.280   0.280   0.280   0.280   0.280   0.280   0.280   0.280   0.280   0.280   0.280   0.280   0.280   0.280   0.280   0.280   0.280   0.280
    46.50    0.280   0.280   0.280   0.280   0.280   0.280   0.280   0.280   0.280   0.280   0.280   0.280   0.280   0.280   0.280   0.280   0.280   0.280   0.280   0.280   0.280   0.280   0.280   0.280   0.280   0.280   0.280   0.280   0.280   0.280   0.280
    41.67    0.280   0.280   0.280   0.280   0.280   0.280   0.280   0.280   0.280   0.280   0.280   0.280   0.280   0.280   0.280   0.280   0.280   0.280   0.280   0.280   0.280   0.280   0.280   0.280   0.280   0.280   0.280   0.280   0.280   0.280   0.280
    36.83    0.280   0.280   0.280   0.280   0.280   0.280   0.280   0.280   0.280   0.280   0.280   0.280   0.280   0.280   0.280   0.280   0.280   0.280   0.280   0.280   0.280   0.280   0.280   0.280   0.280   0.280   0.280   0.280   0.280   0.280   0.280
    32.00    0.280   0.280   0.280   0.280   0.280   0.280   0.280   0.280   0.280   0.280   0.280   0.280   0.280   0.280   0.280   0.280   0.280   0.280   0.280   0.280   0.280   0.280   0.280   0.280   0.280   0.280   0.280   0.280   0.280   0.280   0.280
    27.17    0.280   0.280   0.280   0.280   0.280   0.280   0.280   0.280   0.280   0.280   0.280   0.280   0.280   0.280   0.280   0.280   0.280   0.280   0.280   0.280   0.280   0.280   0.280   0.280   0.280   0.280   0.280   0.280   0.280   0.280   0.280
    22.33    0.280   0.280   0.280   0.280   0.280   0.280   0.280   0.280   0.280   0.280   0.280   0.280   0.280   0.280   0.280   0.280   0.280   0.280   0.280   0.280   0.280   0.280   0.280   0.280   0.280   0.280   0.280   0.280   0.280   0.280   0.280
    17.50    0.280   0.280   0.280   0.280   0.280   0.280   0.280   0.280   0.280   0.280   0.280   0.280   0.280   0.280   0.280   0.280   0.280   0.280   0.280   0.280   0.280   0.280   0.280   0.280   0.280   0.280   0.280   0.280   0.280   0.280   0.280

   Mean standard deviation across all grid points:
      u component:    0.560 m/s
      v component:    0.448 m/s
      w component:    0.280 m/s


U-component (X) statistics from the interpolated hub point:

   Mean =   7.0000 m/s
   TI   =   8.0000 %


Processing complete.  41.094 CPU seconds used.
