
This summary file was generated by TurbSim (from OpenFAST-v3.5.4) on 28-Aug-2025 at 14:13:23.


Runtime Options:

     13426  Random seed #1
    RANLUX  Type of random number generator
         F  Output binary HH turbulence parameters?
         F  Output formatted turbulence parameters?
         F  Output AeroDyn HH files?
         T  Output AeroDyn FF files?
         F  Output BLADED FF files?
         T  Output tower data?
         F  Output HAWC FF files?
         F  Output formatted FF files?
         T  Output coherent turbulence time step file?
 2 -   ALL  IEC turbulence models scaled to exact specified standard deviation


Turbine/Model Specifications:

        12  Vertical grid-point matrix dimension
        12  Horizontal grid-point matrix dimension
     0.050  Time step [seconds]
   660.000  Analysis time [seconds]
   660.000  Usable output time [seconds]
   110.000  Hub height [m]
   150.000  Grid height [m]
   150.000  Grid width [m]
     0.000  Vertical flow angle [degrees]
     0.000  Horizontal flow angle [degrees]


Meteorological Boundary Conditions:

    IECKAI  IEC Kaimal spectral model
         1  IEC standard: IEC 61400-1 Ed. 3: 2005
     8.000  Percent turbulence intensity, IEC 61400-1 Ed. 3: 2005
       NTM  IEC Normal Turbulence Model
       N/A  IEC Extreme Turbulence Model (ETM) "c" parameter [m/s]
       PL   Wind profile type
   110.000  Reference height [m]
     9.000  Reference wind speed [m/s]
       N/A  Jet height [m]
     0.200  Power law exponent
     0.030  Surface roughness length [m]


Non-IEC Meteorological Boundary Conditions:

       N/A  Site latitude [degrees]
       N/A  Gradient Richardson number
       N/A  Friction or shear velocity [m/s]
       N/A  Mixing layer depth [m]
       N/A  Mean hub u'w' Reynolds stress
       N/A  Mean hub u'v' Reynolds stress
       N/A  Mean hub v'w' Reynolds stress


Spatial Coherence Models:

       IEC  u-component coherence model
      NONE  v-component coherence model
      NONE  w-component coherence model
(   12.000, 0.353E-03)  u-component coherence parameters
                   N/A  v-component coherence parameters
                   N/A  w-component coherence parameters
       N/A  Coherence exponent


You have requested that the following file(s) be generated:

   SPW/v9/TI8.0/sd0/IEAonshore_9_sh0.2_TI8.0_sd0.bts (AeroDyn/TurbSim full-field wind file)


Turbulence Simulation Scaling Parameter Summary:

   Turbulence model used                            =  IEC Kaimal
   Turbulence characteristic                        =  User-specified
   IEC standard                                     =  IEC 61400-1 Ed. 3: 2005
   Mean wind speed at hub height                    =    9.000 m/s
   Characteristic value of standard deviation       =    0.720 m/s
   Turbulence scale                                 =   42.000 m
   u-component integral scale                       =  340.200 m
   Coherency scale                                  =  340.200 m
   Characteristic value of hub turbulence intensity =    8.000%
   Gradient Richardson number                       =    0.000

   Wind profile type                                =  Power law
   Power law exponent                               =    0.200
   Mean shear across rotor disk                     =    0.019 (m/s)/m
   Assumed rotor diameter                           =  150.000 m
   Surface roughness length                         =    0.030 m

   Nyquist frequency of turbulent wind field        =   10.000 Hz

   Number of time steps in the FFT                  =    13200
   Number of time steps output                      =    13200
   Number of points simulated                       =      148


Mean Flow Angles:

   Vertical   =   0.0 degrees
   Horizontal =   0.0 degrees

Mean Wind Speed Profile:

   Height    Wind Speed   Horizontal Angle  Vertical Angle  U-comp (X)   V-comp (Y)   W-comp (Z)
     (m)        (m/s)         (degrees)       (degrees)       (m/s)        (m/s)        (m/s)   
   ------    ----------   ----------------  --------------  ----------   ----------   ----------
    185.0        9.99            0.00            0.00          9.99         0.00         0.00
    171.4        9.83            0.00            0.00          9.83         0.00         0.00
    157.7        9.67            0.00            0.00          9.67         0.00         0.00
    144.1        9.50            0.00            0.00          9.50         0.00         0.00
    130.5        9.31            0.00            0.00          9.31         0.00         0.00
    116.8        9.11            0.00            0.00          9.11         0.00         0.00
    110.0        9.00            0.00            0.00          9.00         0.00         0.00
    103.2        8.89            0.00            0.00          8.89         0.00         0.00
     89.5        8.64            0.00            0.00          8.64         0.00         0.00
     75.9        8.36            0.00            0.00          8.36         0.00         0.00
     62.3        8.03            0.00            0.00          8.03         0.00         0.00
     48.6        7.64            0.00            0.00          7.64         0.00         0.00
     35.0        7.16            0.00            0.00          7.16         0.00         0.00
     21.4        6.48            0.00            0.00          6.48         0.00         0.00
      7.7        5.29            0.00            0.00          5.29         0.00         0.00


Harvested Random Seeds after Generation of the Random Numbers:

     27228300 K 1
            0 K 2


Scaling statistics from the hub grid point:

  Component  Target Sigma (m/s)  Simulated Sigma (m/s)  Scaling Factor
  ---------  ------------------  ---------------------  --------------
     u'             0.720                0.636                1.132
     v'             0.576                0.562                1.025
     w'             0.360                0.353                1.021


Hub-Height Simulated Turbulence Statistical Summary:

   Type of Wind        Min (m/s)   Mean (m/s)    Max (m/s)  Sigma (m/s)       TI (%)
   ----------------    ---------   ----------    ---------  -----------       ------
   Longitudinal (u)         6.77         9.00        10.94        0.720        8.000
   Lateral (v)             -1.81         0.00         1.99        0.576        6.400
   Vertical (w)            -1.12         0.00         1.21        0.360        4.000
   U component              6.77         9.00        10.94        0.720        8.000
   V component             -1.81         0.00         1.99        0.576        6.400
   W component             -1.12         0.00         1.21        0.360        4.000
   Horizontal (U&V)         6.88         9.02        10.94        0.717        7.954
   Total                    6.89         9.03        10.94        0.716        7.937

                       Min Reynolds     Mean Reynolds    Max Reynolds    Correlation
   Product             Stress (m/s)^2   Stress (m/s)^2   Stress (m/s)^2  Coefficient
   ----------------    --------------   --------------   --------------  -----------
   u'w'                     -1.320            -0.017             1.528        -0.066
   u'v'                     -4.134            -0.010             1.967        -0.025
   v'w'                     -1.415            -0.000             1.293        -0.000


   Friction Velocity (Ustar)  =      0.131 m/s
   Maximum Instantaneous TKE  =      4.288 (m/s)^2
   Maximum Instantaneous CTKE =      2.153 (m/s)^2


Grid Point Variance Summary:

   Y-coord  -75.00  -61.36  -47.73  -34.09  -20.45   -6.82    6.82   20.45   34.09   47.73   61.36   75.00

   Height   Standard deviation at grid points for the u component:
   185.00    0.720   0.720   0.720   0.720   0.720   0.720   0.720   0.720   0.720   0.720   0.720   0.720
   171.36    0.720   0.720   0.720   0.720   0.720   0.720   0.720   0.720   0.720   0.720   0.720   0.720
   157.73    0.720   0.720   0.720   0.720   0.720   0.720   0.720   0.720   0.720   0.720   0.720   0.720
   144.09    0.720   0.720   0.720   0.720   0.720   0.720   0.720   0.720   0.720   0.720   0.720   0.720
   130.45    0.720   0.720   0.720   0.720   0.720   0.720   0.720   0.720   0.720   0.720   0.720   0.720
   116.82    0.720   0.720   0.720   0.720   0.720   0.720   0.720   0.720   0.720   0.720   0.720   0.720
   103.18    0.720   0.720   0.720   0.720   0.720   0.720   0.720   0.720   0.720   0.720   0.720   0.720
    89.55    0.720   0.720   0.720   0.720   0.720   0.720   0.720   0.720   0.720   0.720   0.720   0.720
    75.91    0.720   0.720   0.720   0.720   0.720   0.720   0.720   0.720   0.720   0.720   0.720   0.720
    62.27    0.720   0.720   0.720   0.720   0.720   0.720   0.720   0.720   0.720   0.720   0.720   0.720
    48.64    0.720   0.720   0.720   0.720   0.720   0.720   0.720   0.720   0.720   0.720   0.720   0.720
    35.00    0.720   0.720   0.720   0.720   0.720   0.720   0.720   0.720   0.720   0.720   0.720   0.720

   Height   Standard deviation at grid points for the v component:
   185.00    0.576   0.576   0.576   0.576   0.576   0.576   0.576   0.576   0.576   0.576   0.576   0.576
   171.36    0.576   0.576   0.576   0.576   0.576   0.576   0.576   0.576   0.576   0.576   0.576   0.576
   157.73    0.576   0.576   0.576   0.576   0.576   0.576   0.576   0.576   0.576   0.576   0.576   0.576
   144.09    0.576   0.576   0.576   0.576   0.576   0.576   0.576   0.576   0.576   0.576   0.576   0.576
   130.45    0.576   0.576   0.576   0.576   0.576   0.576   0.576   0.576   0.576   0.576   0.576   0.576
   116.82    0.576   0.576   0.576   0.576   0.576   0.576   0.576   0.576   0.576   0.576   0.576   0.576
   103.18    0.576   0.576   0.576   0.576   0.576   0.576   0.576   0.576   0.576   0.576   0.576   0.576
    89.55    0.576   0.576   0.576   0.576   0.576   0.576   0.576   0.576   0.576   0.576   0.576   0.576
    75.91    0.576   0.576   0.576   0.576   0.576   0.576   0.576   0.576   0.576   0.576   0.576   0.576
    62.27    0.576   0.576   0.576   0.576   0.576   0.576   0.576   0.576   0.576   0.576   0.576   0.576
    48.64    0.576   0.576   0.576   0.576   0.576   0.576   0.576   0.576   0.576   0.576   0.576   0.576
    35.00    0.576   0.576   0.576   0.576   0.576   0.576   0.576   0.576   0.576   0.576   0.576   0.576

   Height   Standard deviation at grid points for the w component:
   185.00    0.360   0.360   0.360   0.360   0.360   0.360   0.360   0.360   0.360   0.360   0.360   0.360
   171.36    0.360   0.360   0.360   0.360   0.360   0.360   0.360   0.360   0.360   0.360   0.360   0.360
   157.73    0.360   0.360   0.360   0.360   0.360   0.360   0.360   0.360   0.360   0.360   0.360   0.360
   144.09    0.360   0.360   0.360   0.360   0.360   0.360   0.360   0.360   0.360   0.360   0.360   0.360
   130.45    0.360   0.360   0.360   0.360   0.360   0.360   0.360   0.360   0.360   0.360   0.360   0.360
   116.82    0.360   0.360   0.360   0.360   0.360   0.360   0.360   0.360   0.360   0.360   0.360   0.360
   103.18    0.360   0.360   0.360   0.360   0.360   0.360   0.360   0.360   0.360   0.360   0.360   0.360
    89.55    0.360   0.360   0.360   0.360   0.360   0.360   0.360   0.360   0.360   0.360   0.360   0.360
    75.91    0.360   0.360   0.360   0.360   0.360   0.360   0.360   0.360   0.360   0.360   0.360   0.360
    62.27    0.360   0.360   0.360   0.360   0.360   0.360   0.360   0.360   0.360   0.360   0.360   0.360
    48.64    0.360   0.360   0.360   0.360   0.360   0.360   0.360   0.360   0.360   0.360   0.360   0.360
    35.00    0.360   0.360   0.360   0.360   0.360   0.360   0.360   0.360   0.360   0.360   0.360   0.360

   Mean standard deviation across all grid points:
      u component:    0.720 m/s
      v component:    0.576 m/s
      w component:    0.360 m/s


U-component (X) statistics from the interpolated hub point:

   Mean =   8.9972 m/s
   TI   =   6.7336 %


Processing complete.  0.84375 CPU seconds used.
