
This summary file was generated by TurbSim (from OpenFAST-v3.5.4) on 27-Aug-2025 at 16:32:35.


Runtime Options:

     13426  Random seed #1
    RANLUX  Type of random number generator
         F  Output binary HH turbulence parameters?
         F  Output formatted turbulence parameters?
         F  Output AeroDyn HH files?
         T  Output AeroDyn FF files?
         F  Output BLADED FF files?
         T  Output tower data?
         F  Output HAWC FF files?
         F  Output formatted FF files?
         F  Output coherent turbulence time step file?
 2 -   ALL  IEC turbulence models scaled to exact specified standard deviation


Turbine/Model Specifications:

        31  Vertical grid-point matrix dimension
        31  Horizontal grid-point matrix dimension
     0.050  Time step [seconds]
   660.000  Analysis time [seconds]
   660.000  Usable output time [seconds]
    90.000  Hub height [m]
   145.000  Grid height [m]
   145.000  Grid width [m]
     0.000  Vertical flow angle [degrees]
     0.000  Horizontal flow angle [degrees]


Meteorological Boundary Conditions:

    IECKAI  IEC Kaimal spectral model
         1  IEC standard: IEC 61400-1 Ed. 3: 2005
     8.000  Percent turbulence intensity, IEC 61400-1 Ed. 3: 2005
       NTM  IEC Normal Turbulence Model
       N/A  IEC Extreme Turbulence Model (ETM) "c" parameter [m/s]
       PL   Wind profile type
    90.000  Reference height [m]
     8.000  Reference wind speed [m/s]
       N/A  Jet height [m]
     0.200  Power law exponent
     0.030  Surface roughness length [m]


Non-IEC Meteorological Boundary Conditions:

       N/A  Site latitude [degrees]
       N/A  Gradient Richardson number
       N/A  Friction or shear velocity [m/s]
       N/A  Mixing layer depth [m]
       N/A  Mean hub u'w' Reynolds stress
       N/A  Mean hub u'v' Reynolds stress
       N/A  Mean hub v'w' Reynolds stress


Spatial Coherence Models:

       IEC  u-component coherence model
      NONE  v-component coherence model
      NONE  w-component coherence model
(   12.000, 0.353E-03)  u-component coherence parameters
                   N/A  v-component coherence parameters
                   N/A  w-component coherence parameters
       N/A  Coherence exponent


You have requested that the following file(s) be generated:

   SPW/v8/TI8.0/sd0/NREL5MW_8_sh0.2_TI8.0_sd0.bts (AeroDyn/TurbSim full-field wind file)


Turbulence Simulation Scaling Parameter Summary:

   Turbulence model used                            =  IEC Kaimal
   Turbulence characteristic                        =  User-specified
   IEC standard                                     =  IEC 61400-1 Ed. 3: 2005
   Mean wind speed at hub height                    =    8.000 m/s
   Characteristic value of standard deviation       =    0.640 m/s
   Turbulence scale                                 =   42.000 m
   u-component integral scale                       =  340.200 m
   Coherency scale                                  =  340.200 m
   Characteristic value of hub turbulence intensity =    8.000%
   Gradient Richardson number                       =    0.000

   Wind profile type                                =  Power law
   Power law exponent                               =    0.200
   Mean shear across rotor disk                     =    0.022 (m/s)/m
   Assumed rotor diameter                           =  145.000 m
   Surface roughness length                         =    0.030 m

   Nyquist frequency of turbulent wind field        =   10.000 Hz

   Number of time steps in the FFT                  =    13200
   Number of time steps output                      =    13200
   Number of points simulated                       =      964


Mean Flow Angles:

   Vertical   =   0.0 degrees
   Horizontal =   0.0 degrees

Mean Wind Speed Profile:

   Height    Wind Speed   Horizontal Angle  Vertical Angle  U-comp (X)   V-comp (Y)   W-comp (Z)
     (m)        (m/s)         (degrees)       (degrees)       (m/s)        (m/s)        (m/s)   
   ------    ----------   ----------------  --------------  ----------   ----------   ----------
    162.5        9.00            0.00            0.00          9.00         0.00         0.00
    157.7        8.95            0.00            0.00          8.95         0.00         0.00
    152.8        8.89            0.00            0.00          8.89         0.00         0.00
    148.0        8.84            0.00            0.00          8.84         0.00         0.00
    143.2        8.78            0.00            0.00          8.78         0.00         0.00
    138.3        8.72            0.00            0.00          8.72         0.00         0.00
    133.5        8.66            0.00            0.00          8.66         0.00         0.00
    128.7        8.59            0.00            0.00          8.59         0.00         0.00
    123.8        8.53            0.00            0.00          8.53         0.00         0.00
    119.0        8.46            0.00            0.00          8.46         0.00         0.00
    114.2        8.39            0.00            0.00          8.39         0.00         0.00
    109.3        8.32            0.00            0.00          8.32         0.00         0.00
    104.5        8.24            0.00            0.00          8.24         0.00         0.00
     99.7        8.16            0.00            0.00          8.16         0.00         0.00
     94.8        8.08            0.00            0.00          8.08         0.00         0.00
     90.0        8.00            0.00            0.00          8.00         0.00         0.00
     85.2        7.91            0.00            0.00          7.91         0.00         0.00
     80.3        7.82            0.00            0.00          7.82         0.00         0.00
     75.5        7.72            0.00            0.00          7.72         0.00         0.00
     70.7        7.62            0.00            0.00          7.62         0.00         0.00
     65.8        7.52            0.00            0.00          7.52         0.00         0.00
     61.0        7.40            0.00            0.00          7.40         0.00         0.00
     56.2        7.28            0.00            0.00          7.28         0.00         0.00
     51.3        7.15            0.00            0.00          7.15         0.00         0.00
     46.5        7.01            0.00            0.00          7.01         0.00         0.00
     41.7        6.86            0.00            0.00          6.86         0.00         0.00
     36.8        6.69            0.00            0.00          6.69         0.00         0.00
     32.0        6.51            0.00            0.00          6.51         0.00         0.00
     27.2        6.30            0.00            0.00          6.30         0.00         0.00
     22.3        6.05            0.00            0.00          6.05         0.00         0.00
     17.5        5.77            0.00            0.00          5.77         0.00         0.00
     12.7        5.40            0.00            0.00          5.40         0.00         0.00
      7.8        4.91            0.00            0.00          4.91         0.00         0.00
      3.0        4.05            0.00            0.00          4.05         0.00         0.00


Harvested Random Seeds after Generation of the Random Numbers:

    177351900 K 1
            0 K 2


Scaling statistics from the hub grid point:

  Component  Target Sigma (m/s)  Simulated Sigma (m/s)  Scaling Factor
  ---------  ------------------  ---------------------  --------------
     u'             0.640                0.628                1.019
     v'             0.512                0.498                1.027
     w'             0.320                0.314                1.020


Hub-Height Simulated Turbulence Statistical Summary:

   Type of Wind        Min (m/s)   Mean (m/s)    Max (m/s)  Sigma (m/s)       TI (%)
   ----------------    ---------   ----------    ---------  -----------       ------
   Longitudinal (u)         6.28         8.00        10.00        0.640        8.000
   Lateral (v)             -1.77        -0.00         1.98        0.512        6.400
   Vertical (w)            -1.29         0.00         1.08        0.320        4.000
   U component              6.28         8.00        10.00        0.640        8.000
   V component             -1.77        -0.00         1.98        0.512        6.400
   W component             -1.29         0.00         1.08        0.320        4.000
   Horizontal (U&V)         6.30         8.02        10.00        0.636        7.934
   Total                    6.30         8.02        10.01        0.636        7.925

                       Min Reynolds     Mean Reynolds    Max Reynolds    Correlation
   Product             Stress (m/s)^2   Stress (m/s)^2   Stress (m/s)^2  Coefficient
   ----------------    --------------   --------------   --------------  -----------
   u'w'                     -1.274             0.004             1.401         0.017
   u'v'                     -1.955            -0.007             1.796        -0.023
   v'w'                     -1.082             0.003             1.044         0.017


   Friction Velocity (Ustar)  =      0.060 m/s
   Maximum Instantaneous TKE  =      2.461 (m/s)^2
   Maximum Instantaneous CTKE =      1.042 (m/s)^2


Grid Point Variance Summary:

   Y-coord  -72.50  -67.67  -62.83  -58.00  -53.17  -48.33  -43.50  -38.67  -33.83  -29.00  -24.17  -19.33  -14.50   -9.67   -4.83    0.00    4.83    9.67   14.50   19.33   24.17   29.00   33.83   38.67   43.50   48.33   53.17   58.00   62.83   67.67   72.50

   Height   Standard deviation at grid points for the u component:
   162.50    0.640   0.640   0.640   0.640   0.640   0.640   0.640   0.640   0.640   0.640   0.640   0.640   0.640   0.640   0.640   0.640   0.640   0.640   0.640   0.640   0.640   0.640   0.640   0.640   0.640   0.640   0.640   0.640   0.640   0.640   0.640
   157.67    0.640   0.640   0.640   0.640   0.640   0.640   0.640   0.640   0.640   0.640   0.640   0.640   0.640   0.640   0.640   0.640   0.640   0.640   0.640   0.640   0.640   0.640   0.640   0.640   0.640   0.640   0.640   0.640   0.640   0.640   0.640
   152.83    0.640   0.640   0.640   0.640   0.640   0.640   0.640   0.640   0.640   0.640   0.640   0.640   0.640   0.640   0.640   0.640   0.640   0.640   0.640   0.640   0.640   0.640   0.640   0.640   0.640   0.640   0.640   0.640   0.640   0.640   0.640
   148.00    0.640   0.640   0.640   0.640   0.640   0.640   0.640   0.640   0.640   0.640   0.640   0.640   0.640   0.640   0.640   0.640   0.640   0.640   0.640   0.640   0.640   0.640   0.640   0.640   0.640   0.640   0.640   0.640   0.640   0.640   0.640
   143.17    0.640   0.640   0.640   0.640   0.640   0.640   0.640   0.640   0.640   0.640   0.640   0.640   0.640   0.640   0.640   0.640   0.640   0.640   0.640   0.640   0.640   0.640   0.640   0.640   0.640   0.640   0.640   0.640   0.640   0.640   0.640
   138.33    0.640   0.640   0.640   0.640   0.640   0.640   0.640   0.640   0.640   0.640   0.640   0.640   0.640   0.640   0.640   0.640   0.640   0.640   0.640   0.640   0.640   0.640   0.640   0.640   0.640   0.640   0.640   0.640   0.640   0.640   0.640
   133.50    0.640   0.640   0.640   0.640   0.640   0.640   0.640   0.640   0.640   0.640   0.640   0.640   0.640   0.640   0.640   0.640   0.640   0.640   0.640   0.640   0.640   0.640   0.640   0.640   0.640   0.640   0.640   0.640   0.640   0.640   0.640
   128.67    0.640   0.640   0.640   0.640   0.640   0.640   0.640   0.640   0.640   0.640   0.640   0.640   0.640   0.640   0.640   0.640   0.640   0.640   0.640   0.640   0.640   0.640   0.640   0.640   0.640   0.640   0.640   0.640   0.640   0.640   0.640
   123.83    0.640   0.640   0.640   0.640   0.640   0.640   0.640   0.640   0.640   0.640   0.640   0.640   0.640   0.640   0.640   0.640   0.640   0.640   0.640   0.640   0.640   0.640   0.640   0.640   0.640   0.640   0.640   0.640   0.640   0.640   0.640
   119.00    0.640   0.640   0.640   0.640   0.640   0.640   0.640   0.640   0.640   0.640   0.640   0.640   0.640   0.640   0.640   0.640   0.640   0.640   0.640   0.640   0.640   0.640   0.640   0.640   0.640   0.640   0.640   0.640   0.640   0.640   0.640
   114.17    0.640   0.640   0.640   0.640   0.640   0.640   0.640   0.640   0.640   0.640   0.640   0.640   0.640   0.640   0.640   0.640   0.640   0.640   0.640   0.640   0.640   0.640   0.640   0.640   0.640   0.640   0.640   0.640   0.640   0.640   0.640
   109.33    0.640   0.640   0.640   0.640   0.640   0.640   0.640   0.640   0.640   0.640   0.640   0.640   0.640   0.640   0.640   0.640   0.640   0.640   0.640   0.640   0.640   0.640   0.640   0.640   0.640   0.640   0.640   0.640   0.640   0.640   0.640
   104.50    0.640   0.640   0.640   0.640   0.640   0.640   0.640   0.640   0.640   0.640   0.640   0.640   0.640   0.640   0.640   0.640   0.640   0.640   0.640   0.640   0.640   0.640   0.640   0.640   0.640   0.640   0.640   0.640   0.640   0.640   0.640
    99.67    0.640   0.640   0.640   0.640   0.640   0.640   0.640   0.640   0.640   0.640   0.640   0.640   0.640   0.640   0.640   0.640   0.640   0.640   0.640   0.640   0.640   0.640   0.640   0.640   0.640   0.640   0.640   0.640   0.640   0.640   0.640
    94.83    0.640   0.640   0.640   0.640   0.640   0.640   0.640   0.640   0.640   0.640   0.640   0.640   0.640   0.640   0.640   0.640   0.640   0.640   0.640   0.640   0.640   0.640   0.640   0.640   0.640   0.640   0.640   0.640   0.640   0.640   0.640
    90.00    0.640   0.640   0.640   0.640   0.640   0.640   0.640   0.640   0.640   0.640   0.640   0.640   0.640   0.640   0.640   0.640   0.640   0.640   0.640   0.640   0.640   0.640   0.640   0.640   0.640   0.640   0.640   0.640   0.640   0.640   0.640
    85.17    0.640   0.640   0.640   0.640   0.640   0.640   0.640   0.640   0.640   0.640   0.640   0.640   0.640   0.640   0.640   0.640   0.640   0.640   0.640   0.640   0.640   0.640   0.640   0.640   0.640   0.640   0.640   0.640   0.640   0.640   0.640
    80.33    0.640   0.640   0.640   0.640   0.640   0.640   0.640   0.640   0.640   0.640   0.640   0.640   0.640   0.640   0.640   0.640   0.640   0.640   0.640   0.640   0.640   0.640   0.640   0.640   0.640   0.640   0.640   0.640   0.640   0.640   0.640
    75.50    0.640   0.640   0.640   0.640   0.640   0.640   0.640   0.640   0.640   0.640   0.640   0.640   0.640   0.640   0.640   0.640   0.640   0.640   0.640   0.640   0.640   0.640   0.640   0.640   0.640   0.640   0.640   0.640   0.640   0.640   0.640
    70.67    0.640   0.640   0.640   0.640   0.640   0.640   0.640   0.640   0.640   0.640   0.640   0.640   0.640   0.640   0.640   0.640   0.640   0.640   0.640   0.640   0.640   0.640   0.640   0.640   0.640   0.640   0.640   0.640   0.640   0.640   0.640
    65.83    0.640   0.640   0.640   0.640   0.640   0.640   0.640   0.640   0.640   0.640   0.640   0.640   0.640   0.640   0.640   0.640   0.640   0.640   0.640   0.640   0.640   0.640   0.640   0.640   0.640   0.640   0.640   0.640   0.640   0.640   0.640
    61.00    0.640   0.640   0.640   0.640   0.640   0.640   0.640   0.640   0.640   0.640   0.640   0.640   0.640   0.640   0.640   0.640   0.640   0.640   0.640   0.640   0.640   0.640   0.640   0.640   0.640   0.640   0.640   0.640   0.640   0.640   0.640
    56.17    0.640   0.640   0.640   0.640   0.640   0.640   0.640   0.640   0.640   0.640   0.640   0.640   0.640   0.640   0.640   0.640   0.640   0.640   0.640   0.640   0.640   0.640   0.640   0.640   0.640   0.640   0.640   0.640   0.640   0.640   0.640
    51.33    0.640   0.640   0.640   0.640   0.640   0.640   0.640   0.640   0.640   0.640   0.640   0.640   0.640   0.640   0.640   0.640   0.640   0.640   0.640   0.640   0.640   0.640   0.640   0.640   0.640   0.640   0.640   0.640   0.640   0.640   0.640
    46.50    0.640   0.640   0.640   0.640   0.640   0.640   0.640   0.640   0.640   0.640   0.640   0.640   0.640   0.640   0.640   0.640   0.640   0.640   0.640   0.640   0.640   0.640   0.640   0.640   0.640   0.640   0.640   0.640   0.640   0.640   0.640
    41.67    0.640   0.640   0.640   0.640   0.640   0.640   0.640   0.640   0.640   0.640   0.640   0.640   0.640   0.640   0.640   0.640   0.640   0.640   0.640   0.640   0.640   0.640   0.640   0.640   0.640   0.640   0.640   0.640   0.640   0.640   0.640
    36.83    0.640   0.640   0.640   0.640   0.640   0.640   0.640   0.640   0.640   0.640   0.640   0.640   0.640   0.640   0.640   0.640   0.640   0.640   0.640   0.640   0.640   0.640   0.640   0.640   0.640   0.640   0.640   0.640   0.640   0.640   0.640
    32.00    0.640   0.640   0.640   0.640   0.640   0.640   0.640   0.640   0.640   0.640   0.640   0.640   0.640   0.640   0.640   0.640   0.640   0.640   0.640   0.640   0.640   0.640   0.640   0.640   0.640   0.640   0.640   0.640   0.640   0.640   0.640
    27.17    0.640   0.640   0.640   0.640   0.640   0.640   0.640   0.640   0.640   0.640   0.640   0.640   0.640   0.640   0.640   0.640   0.640   0.640   0.640   0.640   0.640   0.640   0.640   0.640   0.640   0.640   0.640   0.640   0.640   0.640   0.640
    22.33    0.640   0.640   0.640   0.640   0.640   0.640   0.640   0.640   0.640   0.640   0.640   0.640   0.640   0.640   0.640   0.640   0.640   0.640   0.640   0.640   0.640   0.640   0.640   0.640   0.640   0.640   0.640   0.640   0.640   0.640   0.640
    17.50    0.640   0.640   0.640   0.640   0.640   0.640   0.640   0.640   0.640   0.640   0.640   0.640   0.640   0.640   0.640   0.640   0.640   0.640   0.640   0.640   0.640   0.640   0.640   0.640   0.640   0.640   0.640   0.640   0.640   0.640   0.640

   Height   Standard deviation at grid points for the v component:
   162.50    0.512   0.512   0.512   0.512   0.512   0.512   0.512   0.512   0.512   0.512   0.512   0.512   0.512   0.512   0.512   0.512   0.512   0.512   0.512   0.512   0.512   0.512   0.512   0.512   0.512   0.512   0.512   0.512   0.512   0.512   0.512
   157.67    0.512   0.512   0.512   0.512   0.512   0.512   0.512   0.512   0.512   0.512   0.512   0.512   0.512   0.512   0.512   0.512   0.512   0.512   0.512   0.512   0.512   0.512   0.512   0.512   0.512   0.512   0.512   0.512   0.512   0.512   0.512
   152.83    0.512   0.512   0.512   0.512   0.512   0.512   0.512   0.512   0.512   0.512   0.512   0.512   0.512   0.512   0.512   0.512   0.512   0.512   0.512   0.512   0.512   0.512   0.512   0.512   0.512   0.512   0.512   0.512   0.512   0.512   0.512
   148.00    0.512   0.512   0.512   0.512   0.512   0.512   0.512   0.512   0.512   0.512   0.512   0.512   0.512   0.512   0.512   0.512   0.512   0.512   0.512   0.512   0.512   0.512   0.512   0.512   0.512   0.512   0.512   0.512   0.512   0.512   0.512
   143.17    0.512   0.512   0.512   0.512   0.512   0.512   0.512   0.512   0.512   0.512   0.512   0.512   0.512   0.512   0.512   0.512   0.512   0.512   0.512   0.512   0.512   0.512   0.512   0.512   0.512   0.512   0.512   0.512   0.512   0.512   0.512
   138.33    0.512   0.512   0.512   0.512   0.512   0.512   0.512   0.512   0.512   0.512   0.512   0.512   0.512   0.512   0.512   0.512   0.512   0.512   0.512   0.512   0.512   0.512   0.512   0.512   0.512   0.512   0.512   0.512   0.512   0.512   0.512
   133.50    0.512   0.512   0.512   0.512   0.512   0.512   0.512   0.512   0.512   0.512   0.512   0.512   0.512   0.512   0.512   0.512   0.512   0.512   0.512   0.512   0.512   0.512   0.512   0.512   0.512   0.512   0.512   0.512   0.512   0.512   0.512
   128.67    0.512   0.512   0.512   0.512   0.512   0.512   0.512   0.512   0.512   0.512   0.512   0.512   0.512   0.512   0.512   0.512   0.512   0.512   0.512   0.512   0.512   0.512   0.512   0.512   0.512   0.512   0.512   0.512   0.512   0.512   0.512
   123.83    0.512   0.512   0.512   0.512   0.512   0.512   0.512   0.512   0.512   0.512   0.512   0.512   0.512   0.512   0.512   0.512   0.512   0.512   0.512   0.512   0.512   0.512   0.512   0.512   0.512   0.512   0.512   0.512   0.512   0.512   0.512
   119.00    0.512   0.512   0.512   0.512   0.512   0.512   0.512   0.512   0.512   0.512   0.512   0.512   0.512   0.512   0.512   0.512   0.512   0.512   0.512   0.512   0.512   0.512   0.512   0.512   0.512   0.512   0.512   0.512   0.512   0.512   0.512
   114.17    0.512   0.512   0.512   0.512   0.512   0.512   0.512   0.512   0.512   0.512   0.512   0.512   0.512   0.512   0.512   0.512   0.512   0.512   0.512   0.512   0.512   0.512   0.512   0.512   0.512   0.512   0.512   0.512   0.512   0.512   0.512
   109.33    0.512   0.512   0.512   0.512   0.512   0.512   0.512   0.512   0.512   0.512   0.512   0.512   0.512   0.512   0.512   0.512   0.512   0.512   0.512   0.512   0.512   0.512   0.512   0.512   0.512   0.512   0.512   0.512   0.512   0.512   0.512
   104.50    0.512   0.512   0.512   0.512   0.512   0.512   0.512   0.512   0.512   0.512   0.512   0.512   0.512   0.512   0.512   0.512   0.512   0.512   0.512   0.512   0.512   0.512   0.512   0.512   0.512   0.512   0.512   0.512   0.512   0.512   0.512
    99.67    0.512   0.512   0.512   0.512   0.512   0.512   0.512   0.512   0.512   0.512   0.512   0.512   0.512   0.512   0.512   0.512   0.512   0.512   0.512   0.512   0.512   0.512   0.512   0.512   0.512   0.512   0.512   0.512   0.512   0.512   0.512
    94.83    0.512   0.512   0.512   0.512   0.512   0.512   0.512   0.512   0.512   0.512   0.512   0.512   0.512   0.512   0.512   0.512   0.512   0.512   0.512   0.512   0.512   0.512   0.512   0.512   0.512   0.512   0.512   0.512   0.512   0.512   0.512
    90.00    0.512   0.512   0.512   0.512   0.512   0.512   0.512   0.512   0.512   0.512   0.512   0.512   0.512   0.512   0.512   0.512   0.512   0.512   0.512   0.512   0.512   0.512   0.512   0.512   0.512   0.512   0.512   0.512   0.512   0.512   0.512
    85.17    0.512   0.512   0.512   0.512   0.512   0.512   0.512   0.512   0.512   0.512   0.512   0.512   0.512   0.512   0.512   0.512   0.512   0.512   0.512   0.512   0.512   0.512   0.512   0.512   0.512   0.512   0.512   0.512   0.512   0.512   0.512
    80.33    0.512   0.512   0.512   0.512   0.512   0.512   0.512   0.512   0.512   0.512   0.512   0.512   0.512   0.512   0.512   0.512   0.512   0.512   0.512   0.512   0.512   0.512   0.512   0.512   0.512   0.512   0.512   0.512   0.512   0.512   0.512
    75.50    0.512   0.512   0.512   0.512   0.512   0.512   0.512   0.512   0.512   0.512   0.512   0.512   0.512   0.512   0.512   0.512   0.512   0.512   0.512   0.512   0.512   0.512   0.512   0.512   0.512   0.512   0.512   0.512   0.512   0.512   0.512
    70.67    0.512   0.512   0.512   0.512   0.512   0.512   0.512   0.512   0.512   0.512   0.512   0.512   0.512   0.512   0.512   0.512   0.512   0.512   0.512   0.512   0.512   0.512   0.512   0.512   0.512   0.512   0.512   0.512   0.512   0.512   0.512
    65.83    0.512   0.512   0.512   0.512   0.512   0.512   0.512   0.512   0.512   0.512   0.512   0.512   0.512   0.512   0.512   0.512   0.512   0.512   0.512   0.512   0.512   0.512   0.512   0.512   0.512   0.512   0.512   0.512   0.512   0.512   0.512
    61.00    0.512   0.512   0.512   0.512   0.512   0.512   0.512   0.512   0.512   0.512   0.512   0.512   0.512   0.512   0.512   0.512   0.512   0.512   0.512   0.512   0.512   0.512   0.512   0.512   0.512   0.512   0.512   0.512   0.512   0.512   0.512
    56.17    0.512   0.512   0.512   0.512   0.512   0.512   0.512   0.512   0.512   0.512   0.512   0.512   0.512   0.512   0.512   0.512   0.512   0.512   0.512   0.512   0.512   0.512   0.512   0.512   0.512   0.512   0.512   0.512   0.512   0.512   0.512
    51.33    0.512   0.512   0.512   0.512   0.512   0.512   0.512   0.512   0.512   0.512   0.512   0.512   0.512   0.512   0.512   0.512   0.512   0.512   0.512   0.512   0.512   0.512   0.512   0.512   0.512   0.512   0.512   0.512   0.512   0.512   0.512
    46.50    0.512   0.512   0.512   0.512   0.512   0.512   0.512   0.512   0.512   0.512   0.512   0.512   0.512   0.512   0.512   0.512   0.512   0.512   0.512   0.512   0.512   0.512   0.512   0.512   0.512   0.512   0.512   0.512   0.512   0.512   0.512
    41.67    0.512   0.512   0.512   0.512   0.512   0.512   0.512   0.512   0.512   0.512   0.512   0.512   0.512   0.512   0.512   0.512   0.512   0.512   0.512   0.512   0.512   0.512   0.512   0.512   0.512   0.512   0.512   0.512   0.512   0.512   0.512
    36.83    0.512   0.512   0.512   0.512   0.512   0.512   0.512   0.512   0.512   0.512   0.512   0.512   0.512   0.512   0.512   0.512   0.512   0.512   0.512   0.512   0.512   0.512   0.512   0.512   0.512   0.512   0.512   0.512   0.512   0.512   0.512
    32.00    0.512   0.512   0.512   0.512   0.512   0.512   0.512   0.512   0.512   0.512   0.512   0.512   0.512   0.512   0.512   0.512   0.512   0.512   0.512   0.512   0.512   0.512   0.512   0.512   0.512   0.512   0.512   0.512   0.512   0.512   0.512
    27.17    0.512   0.512   0.512   0.512   0.512   0.512   0.512   0.512   0.512   0.512   0.512   0.512   0.512   0.512   0.512   0.512   0.512   0.512   0.512   0.512   0.512   0.512   0.512   0.512   0.512   0.512   0.512   0.512   0.512   0.512   0.512
    22.33    0.512   0.512   0.512   0.512   0.512   0.512   0.512   0.512   0.512   0.512   0.512   0.512   0.512   0.512   0.512   0.512   0.512   0.512   0.512   0.512   0.512   0.512   0.512   0.512   0.512   0.512   0.512   0.512   0.512   0.512   0.512
    17.50    0.512   0.512   0.512   0.512   0.512   0.512   0.512   0.512   0.512   0.512   0.512   0.512   0.512   0.512   0.512   0.512   0.512   0.512   0.512   0.512   0.512   0.512   0.512   0.512   0.512   0.512   0.512   0.512   0.512   0.512   0.512

   Height   Standard deviation at grid points for the w component:
   162.50    0.320   0.320   0.320   0.320   0.320   0.320   0.320   0.320   0.320   0.320   0.320   0.320   0.320   0.320   0.320   0.320   0.320   0.320   0.320   0.320   0.320   0.320   0.320   0.320   0.320   0.320   0.320   0.320   0.320   0.320   0.320
   157.67    0.320   0.320   0.320   0.320   0.320   0.320   0.320   0.320   0.320   0.320   0.320   0.320   0.320   0.320   0.320   0.320   0.320   0.320   0.320   0.320   0.320   0.320   0.320   0.320   0.320   0.320   0.320   0.320   0.320   0.320   0.320
   152.83    0.320   0.320   0.320   0.320   0.320   0.320   0.320   0.320   0.320   0.320   0.320   0.320   0.320   0.320   0.320   0.320   0.320   0.320   0.320   0.320   0.320   0.320   0.320   0.320   0.320   0.320   0.320   0.320   0.320   0.320   0.320
   148.00    0.320   0.320   0.320   0.320   0.320   0.320   0.320   0.320   0.320   0.320   0.320   0.320   0.320   0.320   0.320   0.320   0.320   0.320   0.320   0.320   0.320   0.320   0.320   0.320   0.320   0.320   0.320   0.320   0.320   0.320   0.320
   143.17    0.320   0.320   0.320   0.320   0.320   0.320   0.320   0.320   0.320   0.320   0.320   0.320   0.320   0.320   0.320   0.320   0.320   0.320   0.320   0.320   0.320   0.320   0.320   0.320   0.320   0.320   0.320   0.320   0.320   0.320   0.320
   138.33    0.320   0.320   0.320   0.320   0.320   0.320   0.320   0.320   0.320   0.320   0.320   0.320   0.320   0.320   0.320   0.320   0.320   0.320   0.320   0.320   0.320   0.320   0.320   0.320   0.320   0.320   0.320   0.320   0.320   0.320   0.320
   133.50    0.320   0.320   0.320   0.320   0.320   0.320   0.320   0.320   0.320   0.320   0.320   0.320   0.320   0.320   0.320   0.320   0.320   0.320   0.320   0.320   0.320   0.320   0.320   0.320   0.320   0.320   0.320   0.320   0.320   0.320   0.320
   128.67    0.320   0.320   0.320   0.320   0.320   0.320   0.320   0.320   0.320   0.320   0.320   0.320   0.320   0.320   0.320   0.320   0.320   0.320   0.320   0.320   0.320   0.320   0.320   0.320   0.320   0.320   0.320   0.320   0.320   0.320   0.320
   123.83    0.320   0.320   0.320   0.320   0.320   0.320   0.320   0.320   0.320   0.320   0.320   0.320   0.320   0.320   0.320   0.320   0.320   0.320   0.320   0.320   0.320   0.320   0.320   0.320   0.320   0.320   0.320   0.320   0.320   0.320   0.320
   119.00    0.320   0.320   0.320   0.320   0.320   0.320   0.320   0.320   0.320   0.320   0.320   0.320   0.320   0.320   0.320   0.320   0.320   0.320   0.320   0.320   0.320   0.320   0.320   0.320   0.320   0.320   0.320   0.320   0.320   0.320   0.320
   114.17    0.320   0.320   0.320   0.320   0.320   0.320   0.320   0.320   0.320   0.320   0.320   0.320   0.320   0.320   0.320   0.320   0.320   0.320   0.320   0.320   0.320   0.320   0.320   0.320   0.320   0.320   0.320   0.320   0.320   0.320   0.320
   109.33    0.320   0.320   0.320   0.320   0.320   0.320   0.320   0.320   0.320   0.320   0.320   0.320   0.320   0.320   0.320   0.320   0.320   0.320   0.320   0.320   0.320   0.320   0.320   0.320   0.320   0.320   0.320   0.320   0.320   0.320   0.320
   104.50    0.320   0.320   0.320   0.320   0.320   0.320   0.320   0.320   0.320   0.320   0.320   0.320   0.320   0.320   0.320   0.320   0.320   0.320   0.320   0.320   0.320   0.320   0.320   0.320   0.320   0.320   0.320   0.320   0.320   0.320   0.320
    99.67    0.320   0.320   0.320   0.320   0.320   0.320   0.320   0.320   0.320   0.320   0.320   0.320   0.320   0.320   0.320   0.320   0.320   0.320   0.320   0.320   0.320   0.320   0.320   0.320   0.320   0.320   0.320   0.320   0.320   0.320   0.320
    94.83    0.320   0.320   0.320   0.320   0.320   0.320   0.320   0.320   0.320   0.320   0.320   0.320   0.320   0.320   0.320   0.320   0.320   0.320   0.320   0.320   0.320   0.320   0.320   0.320   0.320   0.320   0.320   0.320   0.320   0.320   0.320
    90.00    0.320   0.320   0.320   0.320   0.320   0.320   0.320   0.320   0.320   0.320   0.320   0.320   0.320   0.320   0.320   0.320   0.320   0.320   0.320   0.320   0.320   0.320   0.320   0.320   0.320   0.320   0.320   0.320   0.320   0.320   0.320
    85.17    0.320   0.320   0.320   0.320   0.320   0.320   0.320   0.320   0.320   0.320   0.320   0.320   0.320   0.320   0.320   0.320   0.320   0.320   0.320   0.320   0.320   0.320   0.320   0.320   0.320   0.320   0.320   0.320   0.320   0.320   0.320
    80.33    0.320   0.320   0.320   0.320   0.320   0.320   0.320   0.320   0.320   0.320   0.320   0.320   0.320   0.320   0.320   0.320   0.320   0.320   0.320   0.320   0.320   0.320   0.320   0.320   0.320   0.320   0.320   0.320   0.320   0.320   0.320
    75.50    0.320   0.320   0.320   0.320   0.320   0.320   0.320   0.320   0.320   0.320   0.320   0.320   0.320   0.320   0.320   0.320   0.320   0.320   0.320   0.320   0.320   0.320   0.320   0.320   0.320   0.320   0.320   0.320   0.320   0.320   0.320
    70.67    0.320   0.320   0.320   0.320   0.320   0.320   0.320   0.320   0.320   0.320   0.320   0.320   0.320   0.320   0.320   0.320   0.320   0.320   0.320   0.320   0.320   0.320   0.320   0.320   0.320   0.320   0.320   0.320   0.320   0.320   0.320
    65.83    0.320   0.320   0.320   0.320   0.320   0.320   0.320   0.320   0.320   0.320   0.320   0.320   0.320   0.320   0.320   0.320   0.320   0.320   0.320   0.320   0.320   0.320   0.320   0.320   0.320   0.320   0.320   0.320   0.320   0.320   0.320
    61.00    0.320   0.320   0.320   0.320   0.320   0.320   0.320   0.320   0.320   0.320   0.320   0.320   0.320   0.320   0.320   0.320   0.320   0.320   0.320   0.320   0.320   0.320   0.320   0.320   0.320   0.320   0.320   0.320   0.320   0.320   0.320
    56.17    0.320   0.320   0.320   0.320   0.320   0.320   0.320   0.320   0.320   0.320   0.320   0.320   0.320   0.320   0.320   0.320   0.320   0.320   0.320   0.320   0.320   0.320   0.320   0.320   0.320   0.320   0.320   0.320   0.320   0.320   0.320
    51.33    0.320   0.320   0.320   0.320   0.320   0.320   0.320   0.320   0.320   0.320   0.320   0.320   0.320   0.320   0.320   0.320   0.320   0.320   0.320   0.320   0.320   0.320   0.320   0.320   0.320   0.320   0.320   0.320   0.320   0.320   0.320
    46.50    0.320   0.320   0.320   0.320   0.320   0.320   0.320   0.320   0.320   0.320   0.320   0.320   0.320   0.320   0.320   0.320   0.320   0.320   0.320   0.320   0.320   0.320   0.320   0.320   0.320   0.320   0.320   0.320   0.320   0.320   0.320
    41.67    0.320   0.320   0.320   0.320   0.320   0.320   0.320   0.320   0.320   0.320   0.320   0.320   0.320   0.320   0.320   0.320   0.320   0.320   0.320   0.320   0.320   0.320   0.320   0.320   0.320   0.320   0.320   0.320   0.320   0.320   0.320
    36.83    0.320   0.320   0.320   0.320   0.320   0.320   0.320   0.320   0.320   0.320   0.320   0.320   0.320   0.320   0.320   0.320   0.320   0.320   0.320   0.320   0.320   0.320   0.320   0.320   0.320   0.320   0.320   0.320   0.320   0.320   0.320
    32.00    0.320   0.320   0.320   0.320   0.320   0.320   0.320   0.320   0.320   0.320   0.320   0.320   0.320   0.320   0.320   0.320   0.320   0.320   0.320   0.320   0.320   0.320   0.320   0.320   0.320   0.320   0.320   0.320   0.320   0.320   0.320
    27.17    0.320   0.320   0.320   0.320   0.320   0.320   0.320   0.320   0.320   0.320   0.320   0.320   0.320   0.320   0.320   0.320   0.320   0.320   0.320   0.320   0.320   0.320   0.320   0.320   0.320   0.320   0.320   0.320   0.320   0.320   0.320
    22.33    0.320   0.320   0.320   0.320   0.320   0.320   0.320   0.320   0.320   0.320   0.320   0.320   0.320   0.320   0.320   0.320   0.320   0.320   0.320   0.320   0.320   0.320   0.320   0.320   0.320   0.320   0.320   0.320   0.320   0.320   0.320
    17.50    0.320   0.320   0.320   0.320   0.320   0.320   0.320   0.320   0.320   0.320   0.320   0.320   0.320   0.320   0.320   0.320   0.320   0.320   0.320   0.320   0.320   0.320   0.320   0.320   0.320   0.320   0.320   0.320   0.320   0.320   0.320

   Mean standard deviation across all grid points:
      u component:    0.640 m/s
      v component:    0.512 m/s
      w component:    0.320 m/s


U-component (X) statistics from the interpolated hub point:

   Mean =   8.0000 m/s
   TI   =   8.0000 %


Processing complete.  41.875 CPU seconds used.
