
This summary file was generated by TurbSim (from OpenFAST-v3.5.4) on 21-Aug-2025 at 16:43:13.


Runtime Options:

     13428  Random seed #1
    RANLUX  Type of random number generator
         F  Output binary HH turbulence parameters?
         F  Output formatted turbulence parameters?
         F  Output AeroDyn HH files?
         T  Output AeroDyn FF files?
         F  Output BLADED FF files?
         T  Output tower data?
         F  Output HAWC FF files?
         F  Output formatted FF files?
         F  Output coherent turbulence time step file?
 0 -  NONE  IEC turbulence models scaled to exact specified standard deviation


Turbine/Model Specifications:

        31  Vertical grid-point matrix dimension
        31  Horizontal grid-point matrix dimension
     0.050  Time step [seconds]
   660.000  Analysis time [seconds]
   660.000  Usable output time [seconds]
    90.000  Hub height [m]
   145.000  Grid height [m]
   145.000  Grid width [m]
     0.000  Vertical flow angle [degrees]
     0.000  Horizontal flow angle [degrees]


Meteorological Boundary Conditions:

    IECKAI  IEC Kaimal spectral model
         1  IEC standard: IEC 61400-1 Ed. 3: 2005
    10.000  Percent turbulence intensity, IEC 61400-1 Ed. 3: 2005
       NTM  IEC Normal Turbulence Model
       N/A  IEC Extreme Turbulence Model (ETM) "c" parameter [m/s]
       PL   Wind profile type
    90.000  Reference height [m]
     8.000  Reference wind speed [m/s]
       N/A  Jet height [m]
     0.200  Power law exponent
     0.030  Surface roughness length [m]


Non-IEC Meteorological Boundary Conditions:

       N/A  Site latitude [degrees]
       N/A  Gradient Richardson number
       N/A  Friction or shear velocity [m/s]
       N/A  Mixing layer depth [m]
       N/A  Mean hub u'w' Reynolds stress
       N/A  Mean hub u'v' Reynolds stress
       N/A  Mean hub v'w' Reynolds stress


Spatial Coherence Models:

       IEC  u-component coherence model
      NONE  v-component coherence model
      NONE  w-component coherence model
(   12.000, 0.353E-03)  u-component coherence parameters
                   N/A  v-component coherence parameters
                   N/A  w-component coherence parameters
       N/A  Coherence exponent


You have requested that the following file(s) be generated:

   NREL5MW/NREL5MW_v8_TI10.bts (AeroDyn/TurbSim full-field wind file)


Turbulence Simulation Scaling Parameter Summary:

   Turbulence model used                            =  IEC Kaimal
   Turbulence characteristic                        =  User-specified
   IEC standard                                     =  IEC 61400-1 Ed. 3: 2005
   Mean wind speed at hub height                    =    8.000 m/s
   Characteristic value of standard deviation       =    0.800 m/s
   Turbulence scale                                 =   42.000 m
   u-component integral scale                       =  340.200 m
   Coherency scale                                  =  340.200 m
   Characteristic value of hub turbulence intensity =   10.000%
   Gradient Richardson number                       =    0.000

   Wind profile type                                =  Power law
   Power law exponent                               =    0.200
   Mean shear across rotor disk                     =    0.022 (m/s)/m
   Assumed rotor diameter                           =  145.000 m
   Surface roughness length                         =    0.030 m

   Nyquist frequency of turbulent wind field        =   10.000 Hz

   Number of time steps in the FFT                  =    13200
   Number of time steps output                      =    13200
   Number of points simulated                       =      964


Mean Flow Angles:

   Vertical   =   0.0 degrees
   Horizontal =   0.0 degrees

Mean Wind Speed Profile:

   Height    Wind Speed   Horizontal Angle  Vertical Angle  U-comp (X)   V-comp (Y)   W-comp (Z)
     (m)        (m/s)         (degrees)       (degrees)       (m/s)        (m/s)        (m/s)   
   ------    ----------   ----------------  --------------  ----------   ----------   ----------
    162.5        9.00            0.00            0.00          9.00         0.00         0.00
    157.7        8.95            0.00            0.00          8.95         0.00         0.00
    152.8        8.89            0.00            0.00          8.89         0.00         0.00
    148.0        8.84            0.00            0.00          8.84         0.00         0.00
    143.2        8.78            0.00            0.00          8.78         0.00         0.00
    138.3        8.72            0.00            0.00          8.72         0.00         0.00
    133.5        8.66            0.00            0.00          8.66         0.00         0.00
    128.7        8.59            0.00            0.00          8.59         0.00         0.00
    123.8        8.53            0.00            0.00          8.53         0.00         0.00
    119.0        8.46            0.00            0.00          8.46         0.00         0.00
    114.2        8.39            0.00            0.00          8.39         0.00         0.00
    109.3        8.32            0.00            0.00          8.32         0.00         0.00
    104.5        8.24            0.00            0.00          8.24         0.00         0.00
     99.7        8.16            0.00            0.00          8.16         0.00         0.00
     94.8        8.08            0.00            0.00          8.08         0.00         0.00
     90.0        8.00            0.00            0.00          8.00         0.00         0.00
     85.2        7.91            0.00            0.00          7.91         0.00         0.00
     80.3        7.82            0.00            0.00          7.82         0.00         0.00
     75.5        7.72            0.00            0.00          7.72         0.00         0.00
     70.7        7.62            0.00            0.00          7.62         0.00         0.00
     65.8        7.52            0.00            0.00          7.52         0.00         0.00
     61.0        7.40            0.00            0.00          7.40         0.00         0.00
     56.2        7.28            0.00            0.00          7.28         0.00         0.00
     51.3        7.15            0.00            0.00          7.15         0.00         0.00
     46.5        7.01            0.00            0.00          7.01         0.00         0.00
     41.7        6.86            0.00            0.00          6.86         0.00         0.00
     36.8        6.69            0.00            0.00          6.69         0.00         0.00
     32.0        6.51            0.00            0.00          6.51         0.00         0.00
     27.2        6.30            0.00            0.00          6.30         0.00         0.00
     22.3        6.05            0.00            0.00          6.05         0.00         0.00
     17.5        5.77            0.00            0.00          5.77         0.00         0.00
     12.7        5.40            0.00            0.00          5.40         0.00         0.00
      7.8        4.91            0.00            0.00          4.91         0.00         0.00
      3.0        4.05            0.00            0.00          4.05         0.00         0.00


Harvested Random Seeds after Generation of the Random Numbers:

    177351900 K 1
            0 K 2


Hub-Height Simulated Turbulence Statistical Summary:

   Type of Wind        Min (m/s)   Mean (m/s)    Max (m/s)  Sigma (m/s)       TI (%)
   ----------------    ---------   ----------    ---------  -----------       ------
   Longitudinal (u)         5.95         8.00        10.00        0.630        7.879
   Lateral (v)             -2.06         0.00         2.36        0.623        7.787
   Vertical (w)            -1.54         0.00         1.46        0.392        4.902
   U component              5.95         8.00        10.00        0.630        7.879
   V component             -2.06         0.00         2.36        0.623        7.787
   W component             -1.54         0.00         1.46        0.392        4.902
   Horizontal (U&V)         5.97         8.02        10.01        0.631        7.868
   Total                    5.97         8.03        10.01        0.631        7.848

                       Min Reynolds     Mean Reynolds    Max Reynolds    Correlation
   Product             Stress (m/s)^2   Stress (m/s)^2   Stress (m/s)^2  Coefficient
   ----------------    --------------   --------------   --------------  -----------
   u'w'                     -1.507            -0.024             1.282        -0.095
   u'v'                     -2.074             0.039             1.910         0.099
   v'w'                     -1.771             0.001             1.712         0.003


   Friction Velocity (Ustar)  =      0.154 m/s
   Maximum Instantaneous TKE  =      2.853 (m/s)^2
   Maximum Instantaneous CTKE =      1.263 (m/s)^2


Grid Point Variance Summary:

   Y-coord  -72.50  -67.67  -62.83  -58.00  -53.17  -48.33  -43.50  -38.67  -33.83  -29.00  -24.17  -19.33  -14.50   -9.67   -4.83    0.00    4.83    9.67   14.50   19.33   24.17   29.00   33.83   38.67   43.50   48.33   53.17   58.00   62.83   67.67   72.50

   Height   Standard deviation at grid points for the u component:
   162.50    0.673   0.640   0.641   0.643   0.682   0.716   0.677   0.677   0.654   0.673   0.663   0.618   0.653   0.651   0.699   0.721   0.724   0.682   0.718   0.793   0.710   0.700   0.756   0.738   0.726   0.719   0.763   0.721   0.748   0.714   0.680
   157.67    0.688   0.648   0.651   0.639   0.647   0.691   0.704   0.639   0.643   0.676   0.659   0.655   0.673   0.639   0.691   0.694   0.748   0.734   0.743   0.788   0.723   0.725   0.737   0.712   0.770   0.743   0.748   0.714   0.752   0.692   0.700
   152.83    0.691   0.695   0.637   0.667   0.663   0.677   0.640   0.628   0.680   0.706   0.692   0.688   0.722   0.719   0.697   0.685   0.712   0.760   0.767   0.796   0.777   0.786   0.778   0.693   0.728   0.708   0.726   0.744   0.766   0.683   0.694
   148.00    0.639   0.703   0.708   0.662   0.676   0.635   0.645   0.672   0.681   0.688   0.680   0.732   0.735   0.790   0.742   0.755   0.745   0.780   0.827   0.866   0.823   0.854   0.849   0.758   0.726   0.770   0.725   0.794   0.752   0.712   0.711
   143.17    0.639   0.649   0.664   0.636   0.661   0.657   0.634   0.650   0.625   0.726   0.727   0.738   0.702   0.758   0.738   0.740   0.776   0.773   0.809   0.821   0.809   0.805   0.815   0.770   0.740   0.702   0.779   0.772   0.747   0.725   0.704
   138.33    0.663   0.668   0.718   0.683   0.647   0.673   0.661   0.669   0.681   0.745   0.768   0.836   0.817   0.805   0.756   0.772   0.766   0.788   0.805   0.810   0.798   0.810   0.806   0.780   0.753   0.727   0.777   0.763   0.777   0.786   0.768
   133.50    0.636   0.693   0.689   0.712   0.680   0.714   0.724   0.710   0.734   0.740   0.807   0.813   0.885   0.807   0.769   0.790   0.795   0.792   0.801   0.814   0.801   0.779   0.779   0.751   0.779   0.780   0.776   0.778   0.768   0.717   0.732
   128.67    0.658   0.705   0.711   0.716   0.738   0.720   0.737   0.810   0.800   0.803   0.838   0.826   0.851   0.850   0.799   0.828   0.846   0.822   0.851   0.870   0.813   0.814   0.798   0.753   0.798   0.761   0.729   0.776   0.711   0.682   0.685
   123.83    0.689   0.702   0.726   0.759   0.816   0.786   0.793   0.839   0.850   0.796   0.858   0.825   0.812   0.810   0.783   0.824   0.798   0.810   0.855   0.868   0.830   0.852   0.835   0.783   0.780   0.750   0.755   0.768   0.746   0.693   0.682
   119.00    0.645   0.665   0.667   0.732   0.789   0.800   0.792   0.804   0.809   0.837   0.833   0.808   0.816   0.832   0.843   0.831   0.842   0.834   0.892   0.825   0.859   0.823   0.799   0.804   0.807   0.774   0.736   0.751   0.768   0.713   0.722
   114.17    0.671   0.705   0.708   0.768   0.791   0.761   0.781   0.752   0.752   0.811   0.848   0.801   0.813   0.809   0.807   0.789   0.860   0.855   0.876   0.820   0.815   0.846   0.851   0.831   0.839   0.837   0.805   0.739   0.720   0.672   0.690
   109.33    0.642   0.681   0.720   0.710   0.754   0.746   0.749   0.789   0.809   0.811   0.802   0.788   0.763   0.834   0.785   0.794   0.858   0.851   0.829   0.820   0.812   0.866   0.941   0.916   0.896   0.804   0.779   0.698   0.672   0.716   0.734
   104.50    0.723   0.713   0.673   0.711   0.776   0.769   0.758   0.752   0.783   0.774   0.782   0.743   0.794   0.801   0.807   0.734   0.773   0.806   0.791   0.835   0.852   0.884   0.946   0.919   0.892   0.835   0.746   0.727   0.711   0.713   0.799
    99.67    0.731   0.760   0.726   0.710   0.755   0.760   0.784   0.777   0.789   0.774   0.748   0.740   0.759   0.773   0.759   0.675   0.693   0.724   0.743   0.799   0.801   0.836   0.924   0.938   0.917   0.851   0.837   0.774   0.745   0.822   0.825
    94.83    0.734   0.699   0.717   0.716   0.753   0.750   0.781   0.778   0.774   0.784   0.704   0.719   0.744   0.748   0.708   0.676   0.641   0.687   0.755   0.745   0.804   0.849   0.878   0.886   0.925   0.923   0.893   0.794   0.775   0.794   0.785
    90.00    0.742   0.692   0.720   0.719   0.752   0.740   0.771   0.794   0.775   0.773   0.694   0.746   0.729   0.685   0.710   0.630   0.674   0.723   0.741   0.748   0.782   0.812   0.874   0.852   0.903   0.891   0.862   0.796   0.756   0.762   0.745
    85.17    0.743   0.721   0.657   0.702   0.744   0.774   0.768   0.812   0.800   0.733   0.753   0.758   0.699   0.698   0.692   0.690   0.691   0.687   0.759   0.800   0.776   0.804   0.847   0.874   0.854   0.827   0.869   0.855   0.793   0.763   0.782
    80.33    0.725   0.707   0.693   0.671   0.695   0.751   0.773   0.780   0.739   0.799   0.802   0.754   0.732   0.716   0.701   0.732   0.727   0.686   0.681   0.739   0.768   0.831   0.835   0.832   0.858   0.846   0.856   0.813   0.775   0.821   0.835
    75.50    0.742   0.699   0.705   0.712   0.742   0.702   0.723   0.756   0.744   0.792   0.763   0.777   0.776   0.709   0.685   0.660   0.674   0.677   0.684   0.691   0.738   0.783   0.809   0.752   0.811   0.819   0.809   0.786   0.751   0.780   0.819
    70.67    0.748   0.746   0.726   0.767   0.807   0.743   0.787   0.721   0.714   0.769   0.757   0.765   0.742   0.677   0.645   0.629   0.636   0.660   0.690   0.746   0.720   0.734   0.747   0.739   0.752   0.755   0.762   0.812   0.753   0.744   0.780
    65.83    0.750   0.771   0.795   0.773   0.856   0.763   0.778   0.752   0.683   0.740   0.743   0.754   0.676   0.664   0.671   0.643   0.646   0.640   0.735   0.749   0.772   0.728   0.758   0.775   0.704   0.712   0.783   0.763   0.718   0.759   0.812
    61.00    0.766   0.794   0.798   0.783   0.812   0.792   0.768   0.769   0.756   0.738   0.724   0.693   0.704   0.659   0.660   0.675   0.691   0.682   0.713   0.765   0.792   0.757   0.764   0.781   0.763   0.749   0.784   0.789   0.800   0.811   0.802
    56.17    0.737   0.782   0.808   0.793   0.789   0.783   0.801   0.808   0.840   0.779   0.752   0.712   0.666   0.705   0.659   0.699   0.738   0.716   0.782   0.769   0.766   0.769   0.759   0.768   0.773   0.730   0.797   0.776   0.773   0.814   0.823
    51.33    0.802   0.778   0.800   0.856   0.833   0.781   0.829   0.789   0.817   0.787   0.792   0.743   0.736   0.678   0.690   0.686   0.655   0.646   0.689   0.709   0.708   0.720   0.753   0.728   0.754   0.737   0.775   0.782   0.822   0.797   0.807
    46.50    0.775   0.789   0.814   0.868   0.861   0.793   0.839   0.819   0.814   0.777   0.765   0.749   0.724   0.692   0.697   0.725   0.649   0.671   0.724   0.692   0.701   0.721   0.741   0.744   0.755   0.782   0.783   0.774   0.823   0.792   0.849
    41.67    0.706   0.770   0.793   0.822   0.848   0.789   0.803   0.778   0.777   0.799   0.789   0.808   0.787   0.771   0.712   0.747   0.687   0.693   0.724   0.734   0.711   0.673   0.706   0.714   0.734   0.785   0.825   0.803   0.828   0.785   0.793
    36.83    0.810   0.788   0.770   0.784   0.781   0.756   0.765   0.784   0.770   0.769   0.755   0.756   0.798   0.759   0.718   0.710   0.683   0.675   0.681   0.718   0.712   0.681   0.703   0.748   0.765   0.763   0.835   0.779   0.777   0.740   0.812
    32.00    0.776   0.765   0.804   0.785   0.761   0.767   0.797   0.779   0.784   0.768   0.790   0.750   0.787   0.780   0.748   0.722   0.713   0.697   0.683   0.717   0.708   0.690   0.679   0.741   0.753   0.707   0.788   0.727   0.751   0.753   0.784
    27.17    0.844   0.802   0.770   0.752   0.752   0.747   0.771   0.786   0.834   0.861   0.823   0.801   0.841   0.744   0.730   0.748   0.770   0.741   0.697   0.705   0.687   0.706   0.681   0.737   0.708   0.716   0.728   0.747   0.681   0.727   0.724
    22.33    0.809   0.792   0.744   0.740   0.772   0.758   0.745   0.754   0.812   0.815   0.836   0.798   0.824   0.800   0.844   0.832   0.788   0.724   0.713   0.749   0.715   0.745   0.713   0.780   0.774   0.731   0.733   0.707   0.679   0.745   0.708
    17.50    0.750   0.746   0.816   0.757   0.784   0.738   0.785   0.794   0.822   0.800   0.795   0.843   0.812   0.805   0.854   0.850   0.872   0.752   0.753   0.729   0.750   0.729   0.723   0.727   0.749   0.762   0.769   0.713   0.725   0.697   0.718

   Height   Standard deviation at grid points for the v component:
   162.50    0.623   0.623   0.623   0.623   0.623   0.623   0.623   0.623   0.623   0.623   0.623   0.623   0.623   0.623   0.623   0.623   0.623   0.623   0.623   0.623   0.623   0.623   0.623   0.623   0.623   0.623   0.623   0.623   0.623   0.623   0.623
   157.67    0.623   0.623   0.623   0.623   0.623   0.623   0.623   0.623   0.623   0.623   0.623   0.623   0.623   0.623   0.623   0.623   0.623   0.623   0.623   0.623   0.623   0.623   0.623   0.623   0.623   0.623   0.623   0.623   0.623   0.623   0.623
   152.83    0.623   0.623   0.623   0.623   0.623   0.623   0.623   0.623   0.623   0.623   0.623   0.623   0.623   0.623   0.623   0.623   0.623   0.623   0.623   0.623   0.623   0.623   0.623   0.623   0.623   0.623   0.623   0.623   0.623   0.623   0.623
   148.00    0.623   0.623   0.623   0.623   0.623   0.623   0.623   0.623   0.623   0.623   0.623   0.623   0.623   0.623   0.623   0.623   0.623   0.623   0.623   0.623   0.623   0.623   0.623   0.623   0.623   0.623   0.623   0.623   0.623   0.623   0.623
   143.17    0.623   0.623   0.623   0.623   0.623   0.623   0.623   0.623   0.623   0.623   0.623   0.623   0.623   0.623   0.623   0.623   0.623   0.623   0.623   0.623   0.623   0.623   0.623   0.623   0.623   0.623   0.623   0.623   0.623   0.623   0.623
   138.33    0.623   0.623   0.623   0.623   0.623   0.623   0.623   0.623   0.623   0.623   0.623   0.623   0.623   0.623   0.623   0.623   0.623   0.623   0.623   0.623   0.623   0.623   0.623   0.623   0.623   0.623   0.623   0.623   0.623   0.623   0.623
   133.50    0.623   0.623   0.623   0.623   0.623   0.623   0.623   0.623   0.623   0.623   0.623   0.623   0.623   0.623   0.623   0.623   0.623   0.623   0.623   0.623   0.623   0.623   0.623   0.623   0.623   0.623   0.623   0.623   0.623   0.623   0.623
   128.67    0.623   0.623   0.623   0.623   0.623   0.623   0.623   0.623   0.623   0.623   0.623   0.623   0.623   0.623   0.623   0.623   0.623   0.623   0.623   0.623   0.623   0.623   0.623   0.623   0.623   0.623   0.623   0.623   0.623   0.623   0.623
   123.83    0.623   0.623   0.623   0.623   0.623   0.623   0.623   0.623   0.623   0.623   0.623   0.623   0.623   0.623   0.623   0.623   0.623   0.623   0.623   0.623   0.623   0.623   0.623   0.623   0.623   0.623   0.623   0.623   0.623   0.623   0.623
   119.00    0.623   0.623   0.623   0.623   0.623   0.623   0.623   0.623   0.623   0.623   0.623   0.623   0.623   0.623   0.623   0.623   0.623   0.623   0.623   0.623   0.623   0.623   0.623   0.623   0.623   0.623   0.623   0.623   0.623   0.623   0.623
   114.17    0.623   0.623   0.623   0.623   0.623   0.623   0.623   0.623   0.623   0.623   0.623   0.623   0.623   0.623   0.623   0.623   0.623   0.623   0.623   0.623   0.623   0.623   0.623   0.623   0.623   0.623   0.623   0.623   0.623   0.623   0.623
   109.33    0.623   0.623   0.623   0.623   0.623   0.623   0.623   0.623   0.623   0.623   0.623   0.623   0.623   0.623   0.623   0.623   0.623   0.623   0.623   0.623   0.623   0.623   0.623   0.623   0.623   0.623   0.623   0.623   0.623   0.623   0.623
   104.50    0.623   0.623   0.623   0.623   0.623   0.623   0.623   0.623   0.623   0.623   0.623   0.623   0.623   0.623   0.623   0.623   0.623   0.623   0.623   0.623   0.623   0.623   0.623   0.623   0.623   0.623   0.623   0.623   0.623   0.623   0.623
    99.67    0.623   0.623   0.623   0.623   0.623   0.623   0.623   0.623   0.623   0.623   0.623   0.623   0.623   0.623   0.623   0.623   0.623   0.623   0.623   0.623   0.623   0.623   0.623   0.623   0.623   0.623   0.623   0.623   0.623   0.623   0.623
    94.83    0.623   0.623   0.623   0.623   0.623   0.623   0.623   0.623   0.623   0.623   0.623   0.623   0.623   0.623   0.623   0.623   0.623   0.623   0.623   0.623   0.623   0.623   0.623   0.623   0.623   0.623   0.623   0.623   0.623   0.623   0.623
    90.00    0.623   0.623   0.623   0.623   0.623   0.623   0.623   0.623   0.623   0.623   0.623   0.623   0.623   0.623   0.623   0.623   0.623   0.623   0.623   0.623   0.623   0.623   0.623   0.623   0.623   0.623   0.623   0.623   0.623   0.623   0.623
    85.17    0.623   0.623   0.623   0.623   0.623   0.623   0.623   0.623   0.623   0.623   0.623   0.623   0.623   0.623   0.623   0.623   0.623   0.623   0.623   0.623   0.623   0.623   0.623   0.623   0.623   0.623   0.623   0.623   0.623   0.623   0.623
    80.33    0.623   0.623   0.623   0.623   0.623   0.623   0.623   0.623   0.623   0.623   0.623   0.623   0.623   0.623   0.623   0.623   0.623   0.623   0.623   0.623   0.623   0.623   0.623   0.623   0.623   0.623   0.623   0.623   0.623   0.623   0.623
    75.50    0.623   0.623   0.623   0.623   0.623   0.623   0.623   0.623   0.623   0.623   0.623   0.623   0.623   0.623   0.623   0.623   0.623   0.623   0.623   0.623   0.623   0.623   0.623   0.623   0.623   0.623   0.623   0.623   0.623   0.623   0.623
    70.67    0.623   0.623   0.623   0.623   0.623   0.623   0.623   0.623   0.623   0.623   0.623   0.623   0.623   0.623   0.623   0.623   0.623   0.623   0.623   0.623   0.623   0.623   0.623   0.623   0.623   0.623   0.623   0.623   0.623   0.623   0.623
    65.83    0.623   0.623   0.623   0.623   0.623   0.623   0.623   0.623   0.623   0.623   0.623   0.623   0.623   0.623   0.623   0.623   0.623   0.623   0.623   0.623   0.623   0.623   0.623   0.623   0.623   0.623   0.623   0.623   0.623   0.623   0.623
    61.00    0.623   0.623   0.623   0.623   0.623   0.623   0.623   0.623   0.623   0.623   0.623   0.623   0.623   0.623   0.623   0.623   0.623   0.623   0.623   0.623   0.623   0.623   0.623   0.623   0.623   0.623   0.623   0.623   0.623   0.623   0.623
    56.17    0.623   0.623   0.623   0.623   0.623   0.623   0.623   0.623   0.623   0.623   0.623   0.623   0.623   0.623   0.623   0.623   0.623   0.623   0.623   0.623   0.623   0.623   0.623   0.623   0.623   0.623   0.623   0.623   0.623   0.623   0.623
    51.33    0.623   0.623   0.623   0.623   0.623   0.623   0.623   0.623   0.623   0.623   0.623   0.623   0.623   0.623   0.623   0.623   0.623   0.623   0.623   0.623   0.623   0.623   0.623   0.623   0.623   0.623   0.623   0.623   0.623   0.623   0.623
    46.50    0.623   0.623   0.623   0.623   0.623   0.623   0.623   0.623   0.623   0.623   0.623   0.623   0.623   0.623   0.623   0.623   0.623   0.623   0.623   0.623   0.623   0.623   0.623   0.623   0.623   0.623   0.623   0.623   0.623   0.623   0.623
    41.67    0.623   0.623   0.623   0.623   0.623   0.623   0.623   0.623   0.623   0.623   0.623   0.623   0.623   0.623   0.623   0.623   0.623   0.623   0.623   0.623   0.623   0.623   0.623   0.623   0.623   0.623   0.623   0.623   0.623   0.623   0.623
    36.83    0.623   0.623   0.623   0.623   0.623   0.623   0.623   0.623   0.623   0.623   0.623   0.623   0.623   0.623   0.623   0.623   0.623   0.623   0.623   0.623   0.623   0.623   0.623   0.623   0.623   0.623   0.623   0.623   0.623   0.623   0.623
    32.00    0.623   0.623   0.623   0.623   0.623   0.623   0.623   0.623   0.623   0.623   0.623   0.623   0.623   0.623   0.623   0.623   0.623   0.623   0.623   0.623   0.623   0.623   0.623   0.623   0.623   0.623   0.623   0.623   0.623   0.623   0.623
    27.17    0.623   0.623   0.623   0.623   0.623   0.623   0.623   0.623   0.623   0.623   0.623   0.623   0.623   0.623   0.623   0.623   0.623   0.623   0.623   0.623   0.623   0.623   0.623   0.623   0.623   0.623   0.623   0.623   0.623   0.623   0.623
    22.33    0.623   0.623   0.623   0.623   0.623   0.623   0.623   0.623   0.623   0.623   0.623   0.623   0.623   0.623   0.623   0.623   0.623   0.623   0.623   0.623   0.623   0.623   0.623   0.623   0.623   0.623   0.623   0.623   0.623   0.623   0.623
    17.50    0.623   0.623   0.623   0.623   0.623   0.623   0.623   0.623   0.623   0.623   0.623   0.623   0.623   0.623   0.623   0.623   0.623   0.623   0.623   0.623   0.623   0.623   0.623   0.623   0.623   0.623   0.623   0.623   0.623   0.623   0.623

   Height   Standard deviation at grid points for the w component:
   162.50    0.392   0.392   0.392   0.392   0.392   0.392   0.392   0.392   0.392   0.392   0.392   0.392   0.392   0.392   0.392   0.392   0.392   0.392   0.392   0.392   0.392   0.392   0.392   0.392   0.392   0.392   0.392   0.392   0.392   0.392   0.392
   157.67    0.392   0.392   0.392   0.392   0.392   0.392   0.392   0.392   0.392   0.392   0.392   0.392   0.392   0.392   0.392   0.392   0.392   0.392   0.392   0.392   0.392   0.392   0.392   0.392   0.392   0.392   0.392   0.392   0.392   0.392   0.392
   152.83    0.392   0.392   0.392   0.392   0.392   0.392   0.392   0.392   0.392   0.392   0.392   0.392   0.392   0.392   0.392   0.392   0.392   0.392   0.392   0.392   0.392   0.392   0.392   0.392   0.392   0.392   0.392   0.392   0.392   0.392   0.392
   148.00    0.392   0.392   0.392   0.392   0.392   0.392   0.392   0.392   0.392   0.392   0.392   0.392   0.392   0.392   0.392   0.392   0.392   0.392   0.392   0.392   0.392   0.392   0.392   0.392   0.392   0.392   0.392   0.392   0.392   0.392   0.392
   143.17    0.392   0.392   0.392   0.392   0.392   0.392   0.392   0.392   0.392   0.392   0.392   0.392   0.392   0.392   0.392   0.392   0.392   0.392   0.392   0.392   0.392   0.392   0.392   0.392   0.392   0.392   0.392   0.392   0.392   0.392   0.392
   138.33    0.392   0.392   0.392   0.392   0.392   0.392   0.392   0.392   0.392   0.392   0.392   0.392   0.392   0.392   0.392   0.392   0.392   0.392   0.392   0.392   0.392   0.392   0.392   0.392   0.392   0.392   0.392   0.392   0.392   0.392   0.392
   133.50    0.392   0.392   0.392   0.392   0.392   0.392   0.392   0.392   0.392   0.392   0.392   0.392   0.392   0.392   0.392   0.392   0.392   0.392   0.392   0.392   0.392   0.392   0.392   0.392   0.392   0.392   0.392   0.392   0.392   0.392   0.392
   128.67    0.392   0.392   0.392   0.392   0.392   0.392   0.392   0.392   0.392   0.392   0.392   0.392   0.392   0.392   0.392   0.392   0.392   0.392   0.392   0.392   0.392   0.392   0.392   0.392   0.392   0.392   0.392   0.392   0.392   0.392   0.392
   123.83    0.392   0.392   0.392   0.392   0.392   0.392   0.392   0.392   0.392   0.392   0.392   0.392   0.392   0.392   0.392   0.392   0.392   0.392   0.392   0.392   0.392   0.392   0.392   0.392   0.392   0.392   0.392   0.392   0.392   0.392   0.392
   119.00    0.392   0.392   0.392   0.392   0.392   0.392   0.392   0.392   0.392   0.392   0.392   0.392   0.392   0.392   0.392   0.392   0.392   0.392   0.392   0.392   0.392   0.392   0.392   0.392   0.392   0.392   0.392   0.392   0.392   0.392   0.392
   114.17    0.392   0.392   0.392   0.392   0.392   0.392   0.392   0.392   0.392   0.392   0.392   0.392   0.392   0.392   0.392   0.392   0.392   0.392   0.392   0.392   0.392   0.392   0.392   0.392   0.392   0.392   0.392   0.392   0.392   0.392   0.392
   109.33    0.392   0.392   0.392   0.392   0.392   0.392   0.392   0.392   0.392   0.392   0.392   0.392   0.392   0.392   0.392   0.392   0.392   0.392   0.392   0.392   0.392   0.392   0.392   0.392   0.392   0.392   0.392   0.392   0.392   0.392   0.392
   104.50    0.392   0.392   0.392   0.392   0.392   0.392   0.392   0.392   0.392   0.392   0.392   0.392   0.392   0.392   0.392   0.392   0.392   0.392   0.392   0.392   0.392   0.392   0.392   0.392   0.392   0.392   0.392   0.392   0.392   0.392   0.392
    99.67    0.392   0.392   0.392   0.392   0.392   0.392   0.392   0.392   0.392   0.392   0.392   0.392   0.392   0.392   0.392   0.392   0.392   0.392   0.392   0.392   0.392   0.392   0.392   0.392   0.392   0.392   0.392   0.392   0.392   0.392   0.392
    94.83    0.392   0.392   0.392   0.392   0.392   0.392   0.392   0.392   0.392   0.392   0.392   0.392   0.392   0.392   0.392   0.392   0.392   0.392   0.392   0.392   0.392   0.392   0.392   0.392   0.392   0.392   0.392   0.392   0.392   0.392   0.392
    90.00    0.392   0.392   0.392   0.392   0.392   0.392   0.392   0.392   0.392   0.392   0.392   0.392   0.392   0.392   0.392   0.392   0.392   0.392   0.392   0.392   0.392   0.392   0.392   0.392   0.392   0.392   0.392   0.392   0.392   0.392   0.392
    85.17    0.392   0.392   0.392   0.392   0.392   0.392   0.392   0.392   0.392   0.392   0.392   0.392   0.392   0.392   0.392   0.392   0.392   0.392   0.392   0.392   0.392   0.392   0.392   0.392   0.392   0.392   0.392   0.392   0.392   0.392   0.392
    80.33    0.392   0.392   0.392   0.392   0.392   0.392   0.392   0.392   0.392   0.392   0.392   0.392   0.392   0.392   0.392   0.392   0.392   0.392   0.392   0.392   0.392   0.392   0.392   0.392   0.392   0.392   0.392   0.392   0.392   0.392   0.392
    75.50    0.392   0.392   0.392   0.392   0.392   0.392   0.392   0.392   0.392   0.392   0.392   0.392   0.392   0.392   0.392   0.392   0.392   0.392   0.392   0.392   0.392   0.392   0.392   0.392   0.392   0.392   0.392   0.392   0.392   0.392   0.392
    70.67    0.392   0.392   0.392   0.392   0.392   0.392   0.392   0.392   0.392   0.392   0.392   0.392   0.392   0.392   0.392   0.392   0.392   0.392   0.392   0.392   0.392   0.392   0.392   0.392   0.392   0.392   0.392   0.392   0.392   0.392   0.392
    65.83    0.392   0.392   0.392   0.392   0.392   0.392   0.392   0.392   0.392   0.392   0.392   0.392   0.392   0.392   0.392   0.392   0.392   0.392   0.392   0.392   0.392   0.392   0.392   0.392   0.392   0.392   0.392   0.392   0.392   0.392   0.392
    61.00    0.392   0.392   0.392   0.392   0.392   0.392   0.392   0.392   0.392   0.392   0.392   0.392   0.392   0.392   0.392   0.392   0.392   0.392   0.392   0.392   0.392   0.392   0.392   0.392   0.392   0.392   0.392   0.392   0.392   0.392   0.392
    56.17    0.392   0.392   0.392   0.392   0.392   0.392   0.392   0.392   0.392   0.392   0.392   0.392   0.392   0.392   0.392   0.392   0.392   0.392   0.392   0.392   0.392   0.392   0.392   0.392   0.392   0.392   0.392   0.392   0.392   0.392   0.392
    51.33    0.392   0.392   0.392   0.392   0.392   0.392   0.392   0.392   0.392   0.392   0.392   0.392   0.392   0.392   0.392   0.392   0.392   0.392   0.392   0.392   0.392   0.392   0.392   0.392   0.392   0.392   0.392   0.392   0.392   0.392   0.392
    46.50    0.392   0.392   0.392   0.392   0.392   0.392   0.392   0.392   0.392   0.392   0.392   0.392   0.392   0.392   0.392   0.392   0.392   0.392   0.392   0.392   0.392   0.392   0.392   0.392   0.392   0.392   0.392   0.392   0.392   0.392   0.392
    41.67    0.392   0.392   0.392   0.392   0.392   0.392   0.392   0.392   0.392   0.392   0.392   0.392   0.392   0.392   0.392   0.392   0.392   0.392   0.392   0.392   0.392   0.392   0.392   0.392   0.392   0.392   0.392   0.392   0.392   0.392   0.392
    36.83    0.392   0.392   0.392   0.392   0.392   0.392   0.392   0.392   0.392   0.392   0.392   0.392   0.392   0.392   0.392   0.392   0.392   0.392   0.392   0.392   0.392   0.392   0.392   0.392   0.392   0.392   0.392   0.392   0.392   0.392   0.392
    32.00    0.392   0.392   0.392   0.392   0.392   0.392   0.392   0.392   0.392   0.392   0.392   0.392   0.392   0.392   0.392   0.392   0.392   0.392   0.392   0.392   0.392   0.392   0.392   0.392   0.392   0.392   0.392   0.392   0.392   0.392   0.392
    27.17    0.392   0.392   0.392   0.392   0.392   0.392   0.392   0.392   0.392   0.392   0.392   0.392   0.392   0.392   0.392   0.392   0.392   0.392   0.392   0.392   0.392   0.392   0.392   0.392   0.392   0.392   0.392   0.392   0.392   0.392   0.392
    22.33    0.392   0.392   0.392   0.392   0.392   0.392   0.392   0.392   0.392   0.392   0.392   0.392   0.392   0.392   0.392   0.392   0.392   0.392   0.392   0.392   0.392   0.392   0.392   0.392   0.392   0.392   0.392   0.392   0.392   0.392   0.392
    17.50    0.392   0.392   0.392   0.392   0.392   0.392   0.392   0.392   0.392   0.392   0.392   0.392   0.392   0.392   0.392   0.392   0.392   0.392   0.392   0.392   0.392   0.392   0.392   0.392   0.392   0.392   0.392   0.392   0.392   0.392   0.392

   Mean standard deviation across all grid points:
      u component:    0.756 m/s
      v component:    0.623 m/s
      w component:    0.392 m/s


U-component (X) statistics from the interpolated hub point:

   Mean =   8.0000 m/s
   TI   =   7.8786 %


Processing complete.  36.641 CPU seconds used.
