
This summary file was generated by TurbSim (from OpenFAST-v3.5.4) on 21-Aug-2025 at 16:43:30.


Runtime Options:

     13428  Random seed #1
    RANLUX  Type of random number generator
         F  Output binary HH turbulence parameters?
         F  Output formatted turbulence parameters?
         F  Output AeroDyn HH files?
         T  Output AeroDyn FF files?
         F  Output BLADED FF files?
         T  Output tower data?
         F  Output HAWC FF files?
         F  Output formatted FF files?
         F  Output coherent turbulence time step file?
 0 -  NONE  IEC turbulence models scaled to exact specified standard deviation


Turbine/Model Specifications:

        31  Vertical grid-point matrix dimension
        31  Horizontal grid-point matrix dimension
     0.050  Time step [seconds]
   660.000  Analysis time [seconds]
   660.000  Usable output time [seconds]
    90.000  Hub height [m]
   145.000  Grid height [m]
   145.000  Grid width [m]
     0.000  Vertical flow angle [degrees]
     0.000  Horizontal flow angle [degrees]


Meteorological Boundary Conditions:

    IECKAI  IEC Kaimal spectral model
         1  IEC standard: IEC 61400-1 Ed. 3: 2005
    10.000  Percent turbulence intensity, IEC 61400-1 Ed. 3: 2005
       NTM  IEC Normal Turbulence Model
       N/A  IEC Extreme Turbulence Model (ETM) "c" parameter [m/s]
       PL   Wind profile type
    90.000  Reference height [m]
     9.000  Reference wind speed [m/s]
       N/A  Jet height [m]
     0.200  Power law exponent
     0.030  Surface roughness length [m]


Non-IEC Meteorological Boundary Conditions:

       N/A  Site latitude [degrees]
       N/A  Gradient Richardson number
       N/A  Friction or shear velocity [m/s]
       N/A  Mixing layer depth [m]
       N/A  Mean hub u'w' Reynolds stress
       N/A  Mean hub u'v' Reynolds stress
       N/A  Mean hub v'w' Reynolds stress


Spatial Coherence Models:

       IEC  u-component coherence model
      NONE  v-component coherence model
      NONE  w-component coherence model
(   12.000, 0.353E-03)  u-component coherence parameters
                   N/A  v-component coherence parameters
                   N/A  w-component coherence parameters
       N/A  Coherence exponent


You have requested that the following file(s) be generated:

   NREL5MW/NREL5MW_v9_TI10.bts (AeroDyn/TurbSim full-field wind file)


Turbulence Simulation Scaling Parameter Summary:

   Turbulence model used                            =  IEC Kaimal
   Turbulence characteristic                        =  User-specified
   IEC standard                                     =  IEC 61400-1 Ed. 3: 2005
   Mean wind speed at hub height                    =    9.000 m/s
   Characteristic value of standard deviation       =    0.900 m/s
   Turbulence scale                                 =   42.000 m
   u-component integral scale                       =  340.200 m
   Coherency scale                                  =  340.200 m
   Characteristic value of hub turbulence intensity =   10.000%
   Gradient Richardson number                       =    0.000

   Wind profile type                                =  Power law
   Power law exponent                               =    0.200
   Mean shear across rotor disk                     =    0.025 (m/s)/m
   Assumed rotor diameter                           =  145.000 m
   Surface roughness length                         =    0.030 m

   Nyquist frequency of turbulent wind field        =   10.000 Hz

   Number of time steps in the FFT                  =    13200
   Number of time steps output                      =    13200
   Number of points simulated                       =      964


Mean Flow Angles:

   Vertical   =   0.0 degrees
   Horizontal =   0.0 degrees

Mean Wind Speed Profile:

   Height    Wind Speed   Horizontal Angle  Vertical Angle  U-comp (X)   V-comp (Y)   W-comp (Z)
     (m)        (m/s)         (degrees)       (degrees)       (m/s)        (m/s)        (m/s)   
   ------    ----------   ----------------  --------------  ----------   ----------   ----------
    162.5       10.13            0.00            0.00         10.13         0.00         0.00
    157.7       10.07            0.00            0.00         10.07         0.00         0.00
    152.8       10.01            0.00            0.00         10.01         0.00         0.00
    148.0        9.94            0.00            0.00          9.94         0.00         0.00
    143.2        9.88            0.00            0.00          9.88         0.00         0.00
    138.3        9.81            0.00            0.00          9.81         0.00         0.00
    133.5        9.74            0.00            0.00          9.74         0.00         0.00
    128.7        9.67            0.00            0.00          9.67         0.00         0.00
    123.8        9.59            0.00            0.00          9.59         0.00         0.00
    119.0        9.52            0.00            0.00          9.52         0.00         0.00
    114.2        9.44            0.00            0.00          9.44         0.00         0.00
    109.3        9.36            0.00            0.00          9.36         0.00         0.00
    104.5        9.27            0.00            0.00          9.27         0.00         0.00
     99.7        9.19            0.00            0.00          9.19         0.00         0.00
     94.8        9.09            0.00            0.00          9.09         0.00         0.00
     90.0        9.00            0.00            0.00          9.00         0.00         0.00
     85.2        8.90            0.00            0.00          8.90         0.00         0.00
     80.3        8.80            0.00            0.00          8.80         0.00         0.00
     75.5        8.69            0.00            0.00          8.69         0.00         0.00
     70.7        8.58            0.00            0.00          8.58         0.00         0.00
     65.8        8.45            0.00            0.00          8.45         0.00         0.00
     61.0        8.33            0.00            0.00          8.33         0.00         0.00
     56.2        8.19            0.00            0.00          8.19         0.00         0.00
     51.3        8.04            0.00            0.00          8.04         0.00         0.00
     46.5        7.89            0.00            0.00          7.89         0.00         0.00
     41.7        7.72            0.00            0.00          7.72         0.00         0.00
     36.8        7.53            0.00            0.00          7.53         0.00         0.00
     32.0        7.32            0.00            0.00          7.32         0.00         0.00
     27.2        7.08            0.00            0.00          7.08         0.00         0.00
     22.3        6.81            0.00            0.00          6.81         0.00         0.00
     17.5        6.49            0.00            0.00          6.49         0.00         0.00
     12.7        6.08            0.00            0.00          6.08         0.00         0.00
      7.8        5.52            0.00            0.00          5.52         0.00         0.00
      3.0        4.56            0.00            0.00          4.56         0.00         0.00


Harvested Random Seeds after Generation of the Random Numbers:

    177351900 K 1
            0 K 2


Hub-Height Simulated Turbulence Statistical Summary:

   Type of Wind        Min (m/s)   Mean (m/s)    Max (m/s)  Sigma (m/s)       TI (%)
   ----------------    ---------   ----------    ---------  -----------       ------
   Longitudinal (u)         6.62         9.00        11.36        0.728        8.087
   Lateral (v)             -2.35         0.00         2.67        0.702        7.801
   Vertical (w)            -1.75         0.00         1.66        0.441        4.899
   U component              6.62         9.00        11.36        0.728        8.087
   V component             -2.35         0.00         2.67        0.702        7.801
   W component             -1.75         0.00         1.66        0.441        4.899
   Horizontal (U&V)         6.64         9.03        11.36        0.729        8.077
   Total                    6.64         9.04        11.36        0.728        8.058

                       Min Reynolds     Mean Reynolds    Max Reynolds    Correlation
   Product             Stress (m/s)^2   Stress (m/s)^2   Stress (m/s)^2  Coefficient
   ----------------    --------------   --------------   --------------  -----------
   u'w'                     -1.893            -0.029             1.740        -0.090
   u'v'                     -2.693             0.043             2.487         0.084
   v'w'                     -2.260             0.000             2.184         0.001


   Friction Velocity (Ustar)  =      0.170 m/s
   Maximum Instantaneous TKE  =      3.649 (m/s)^2
   Maximum Instantaneous CTKE =      1.631 (m/s)^2


Grid Point Variance Summary:

   Y-coord  -72.50  -67.67  -62.83  -58.00  -53.17  -48.33  -43.50  -38.67  -33.83  -29.00  -24.17  -19.33  -14.50   -9.67   -4.83    0.00    4.83    9.67   14.50   19.33   24.17   29.00   33.83   38.67   43.50   48.33   53.17   58.00   62.83   67.67   72.50

   Height   Standard deviation at grid points for the u component:
   162.50    0.768   0.731   0.735   0.737   0.776   0.815   0.770   0.771   0.749   0.769   0.759   0.710   0.751   0.749   0.798   0.825   0.829   0.783   0.821   0.901   0.816   0.803   0.863   0.845   0.830   0.821   0.863   0.820   0.849   0.812   0.779
   157.67    0.786   0.742   0.746   0.733   0.738   0.783   0.799   0.733   0.736   0.771   0.754   0.749   0.772   0.736   0.790   0.796   0.851   0.838   0.848   0.895   0.827   0.829   0.841   0.813   0.877   0.845   0.848   0.814   0.852   0.791   0.801
   152.83    0.786   0.794   0.732   0.764   0.757   0.771   0.732   0.721   0.777   0.803   0.790   0.786   0.827   0.822   0.798   0.788   0.815   0.865   0.872   0.904   0.883   0.894   0.885   0.793   0.828   0.806   0.823   0.843   0.870   0.780   0.794
   148.00    0.733   0.801   0.808   0.756   0.776   0.731   0.741   0.771   0.778   0.787   0.778   0.837   0.840   0.899   0.848   0.861   0.848   0.887   0.937   0.977   0.930   0.963   0.958   0.860   0.826   0.874   0.822   0.897   0.855   0.811   0.806
   143.17    0.736   0.745   0.760   0.732   0.761   0.757   0.732   0.745   0.720   0.829   0.831   0.845   0.805   0.865   0.843   0.845   0.885   0.882   0.917   0.929   0.915   0.910   0.919   0.872   0.838   0.798   0.879   0.875   0.851   0.823   0.803
   138.33    0.758   0.766   0.820   0.783   0.746   0.774   0.759   0.766   0.779   0.849   0.876   0.949   0.930   0.915   0.863   0.882   0.875   0.898   0.915   0.919   0.905   0.915   0.908   0.881   0.852   0.823   0.879   0.864   0.880   0.889   0.868
   133.50    0.730   0.789   0.786   0.812   0.777   0.814   0.826   0.810   0.835   0.845   0.918   0.922   0.999   0.916   0.878   0.902   0.906   0.904   0.911   0.923   0.907   0.879   0.881   0.852   0.879   0.881   0.878   0.881   0.870   0.816   0.831
   128.67    0.750   0.802   0.808   0.816   0.837   0.820   0.840   0.918   0.906   0.911   0.951   0.935   0.963   0.962   0.910   0.940   0.958   0.933   0.966   0.984   0.922   0.918   0.900   0.852   0.900   0.860   0.827   0.875   0.807   0.778   0.782
   123.83    0.782   0.796   0.820   0.857   0.921   0.891   0.899   0.949   0.961   0.903   0.971   0.935   0.921   0.921   0.893   0.937   0.908   0.922   0.968   0.981   0.940   0.960   0.941   0.886   0.882   0.848   0.853   0.868   0.849   0.790   0.780
   119.00    0.736   0.757   0.758   0.832   0.895   0.905   0.897   0.910   0.916   0.947   0.945   0.916   0.925   0.939   0.954   0.943   0.955   0.947   1.008   0.934   0.970   0.928   0.904   0.910   0.908   0.872   0.832   0.851   0.870   0.816   0.825
   114.17    0.766   0.803   0.807   0.870   0.897   0.862   0.881   0.853   0.857   0.922   0.961   0.910   0.921   0.918   0.916   0.895   0.973   0.966   0.990   0.929   0.923   0.953   0.960   0.940   0.946   0.944   0.910   0.837   0.819   0.769   0.788
   109.33    0.737   0.780   0.821   0.812   0.858   0.849   0.851   0.896   0.920   0.921   0.911   0.897   0.869   0.944   0.893   0.901   0.968   0.963   0.937   0.927   0.918   0.974   1.055   1.031   1.009   0.909   0.884   0.797   0.768   0.814   0.837
   104.50    0.828   0.817   0.774   0.815   0.884   0.876   0.861   0.856   0.889   0.881   0.887   0.847   0.902   0.909   0.916   0.833   0.875   0.910   0.893   0.940   0.960   0.992   1.057   1.029   1.000   0.941   0.847   0.830   0.811   0.813   0.905
    99.67    0.836   0.867   0.832   0.815   0.860   0.865   0.888   0.881   0.894   0.880   0.850   0.843   0.863   0.882   0.868   0.773   0.786   0.822   0.841   0.899   0.905   0.939   1.034   1.047   1.025   0.956   0.944   0.878   0.848   0.928   0.930
    94.83    0.840   0.803   0.823   0.819   0.857   0.854   0.884   0.881   0.876   0.887   0.803   0.822   0.850   0.856   0.811   0.773   0.734   0.785   0.855   0.844   0.906   0.953   0.985   0.990   1.030   1.029   1.000   0.896   0.876   0.898   0.886
    90.00    0.847   0.794   0.823   0.822   0.856   0.842   0.876   0.899   0.879   0.874   0.792   0.848   0.834   0.788   0.813   0.728   0.772   0.821   0.840   0.845   0.882   0.911   0.978   0.952   1.007   0.993   0.964   0.896   0.854   0.862   0.844
    85.17    0.847   0.823   0.755   0.805   0.849   0.878   0.871   0.917   0.905   0.833   0.856   0.861   0.801   0.800   0.796   0.794   0.790   0.783   0.860   0.906   0.876   0.904   0.948   0.976   0.954   0.925   0.970   0.958   0.894   0.866   0.885
    80.33    0.828   0.808   0.795   0.770   0.791   0.850   0.878   0.883   0.840   0.901   0.906   0.858   0.838   0.819   0.804   0.836   0.826   0.782   0.779   0.842   0.866   0.932   0.935   0.932   0.960   0.946   0.958   0.911   0.872   0.926   0.941
    75.50    0.846   0.801   0.807   0.813   0.840   0.799   0.823   0.858   0.846   0.896   0.864   0.879   0.881   0.811   0.784   0.758   0.772   0.773   0.784   0.791   0.836   0.883   0.910   0.850   0.912   0.921   0.908   0.884   0.848   0.882   0.923
    70.67    0.852   0.850   0.828   0.867   0.912   0.846   0.891   0.821   0.813   0.871   0.859   0.868   0.841   0.776   0.741   0.723   0.731   0.755   0.788   0.848   0.818   0.831   0.845   0.835   0.849   0.853   0.860   0.915   0.853   0.842   0.881
    65.83    0.855   0.876   0.899   0.874   0.966   0.868   0.884   0.855   0.779   0.838   0.843   0.856   0.772   0.762   0.770   0.741   0.744   0.735   0.834   0.849   0.874   0.829   0.860   0.879   0.803   0.815   0.889   0.869   0.820   0.862   0.914
    61.00    0.870   0.899   0.901   0.884   0.918   0.898   0.872   0.869   0.857   0.836   0.823   0.789   0.802   0.753   0.756   0.771   0.786   0.775   0.811   0.866   0.896   0.860   0.869   0.888   0.868   0.855   0.897   0.902   0.912   0.920   0.908
    56.17    0.838   0.883   0.911   0.893   0.890   0.884   0.903   0.910   0.945   0.882   0.855   0.809   0.760   0.804   0.753   0.794   0.836   0.811   0.884   0.871   0.869   0.875   0.863   0.874   0.878   0.837   0.906   0.887   0.883   0.924   0.933
    51.33    0.905   0.879   0.903   0.961   0.936   0.880   0.935   0.890   0.921   0.892   0.897   0.845   0.839   0.777   0.790   0.782   0.746   0.737   0.785   0.807   0.805   0.822   0.857   0.831   0.857   0.843   0.882   0.891   0.934   0.908   0.917
    46.50    0.881   0.892   0.917   0.974   0.964   0.895   0.945   0.920   0.917   0.879   0.869   0.850   0.826   0.791   0.797   0.828   0.744   0.766   0.824   0.789   0.798   0.822   0.847   0.849   0.860   0.889   0.888   0.881   0.937   0.903   0.962
    41.67    0.805   0.873   0.896   0.926   0.952   0.890   0.905   0.878   0.878   0.902   0.892   0.912   0.894   0.876   0.813   0.851   0.788   0.795   0.825   0.835   0.809   0.771   0.809   0.819   0.839   0.893   0.934   0.911   0.941   0.894   0.900
    36.83    0.914   0.892   0.873   0.886   0.879   0.851   0.865   0.885   0.871   0.872   0.855   0.857   0.902   0.863   0.821   0.813   0.785   0.776   0.780   0.817   0.813   0.779   0.807   0.856   0.874   0.871   0.949   0.889   0.884   0.841   0.918
    32.00    0.876   0.866   0.909   0.887   0.858   0.864   0.898   0.880   0.887   0.869   0.893   0.852   0.890   0.882   0.851   0.825   0.816   0.799   0.783   0.820   0.811   0.792   0.781   0.850   0.863   0.815   0.898   0.834   0.858   0.858   0.889
    27.17    0.948   0.906   0.871   0.852   0.850   0.844   0.869   0.887   0.937   0.968   0.927   0.903   0.948   0.847   0.832   0.854   0.879   0.845   0.799   0.810   0.792   0.812   0.787   0.846   0.814   0.824   0.836   0.855   0.781   0.831   0.827
    22.33    0.912   0.895   0.844   0.839   0.873   0.854   0.843   0.854   0.914   0.915   0.941   0.897   0.929   0.904   0.951   0.943   0.898   0.831   0.815   0.859   0.823   0.853   0.820   0.891   0.883   0.839   0.842   0.813   0.781   0.851   0.810
    17.50    0.849   0.843   0.920   0.856   0.887   0.837   0.888   0.896   0.924   0.899   0.894   0.946   0.913   0.907   0.962   0.960   0.986   0.859   0.859   0.836   0.856   0.837   0.828   0.833   0.857   0.869   0.879   0.818   0.828   0.797   0.823

   Height   Standard deviation at grid points for the v component:
   162.50    0.702   0.702   0.702   0.702   0.702   0.702   0.702   0.702   0.702   0.702   0.702   0.702   0.702   0.702   0.702   0.702   0.702   0.702   0.702   0.702   0.702   0.702   0.702   0.702   0.702   0.702   0.702   0.702   0.702   0.702   0.702
   157.67    0.702   0.702   0.702   0.702   0.702   0.702   0.702   0.702   0.702   0.702   0.702   0.702   0.702   0.702   0.702   0.702   0.702   0.702   0.702   0.702   0.702   0.702   0.702   0.702   0.702   0.702   0.702   0.702   0.702   0.702   0.702
   152.83    0.702   0.702   0.702   0.702   0.702   0.702   0.702   0.702   0.702   0.702   0.702   0.702   0.702   0.702   0.702   0.702   0.702   0.702   0.702   0.702   0.702   0.702   0.702   0.702   0.702   0.702   0.702   0.702   0.702   0.702   0.702
   148.00    0.702   0.702   0.702   0.702   0.702   0.702   0.702   0.702   0.702   0.702   0.702   0.702   0.702   0.702   0.702   0.702   0.702   0.702   0.702   0.702   0.702   0.702   0.702   0.702   0.702   0.702   0.702   0.702   0.702   0.702   0.702
   143.17    0.702   0.702   0.702   0.702   0.702   0.702   0.702   0.702   0.702   0.702   0.702   0.702   0.702   0.702   0.702   0.702   0.702   0.702   0.702   0.702   0.702   0.702   0.702   0.702   0.702   0.702   0.702   0.702   0.702   0.702   0.702
   138.33    0.702   0.702   0.702   0.702   0.702   0.702   0.702   0.702   0.702   0.702   0.702   0.702   0.702   0.702   0.702   0.702   0.702   0.702   0.702   0.702   0.702   0.702   0.702   0.702   0.702   0.702   0.702   0.702   0.702   0.702   0.702
   133.50    0.702   0.702   0.702   0.702   0.702   0.702   0.702   0.702   0.702   0.702   0.702   0.702   0.702   0.702   0.702   0.702   0.702   0.702   0.702   0.702   0.702   0.702   0.702   0.702   0.702   0.702   0.702   0.702   0.702   0.702   0.702
   128.67    0.702   0.702   0.702   0.702   0.702   0.702   0.702   0.702   0.702   0.702   0.702   0.702   0.702   0.702   0.702   0.702   0.702   0.702   0.702   0.702   0.702   0.702   0.702   0.702   0.702   0.702   0.702   0.702   0.702   0.702   0.702
   123.83    0.702   0.702   0.702   0.702   0.702   0.702   0.702   0.702   0.702   0.702   0.702   0.702   0.702   0.702   0.702   0.702   0.702   0.702   0.702   0.702   0.702   0.702   0.702   0.702   0.702   0.702   0.702   0.702   0.702   0.702   0.702
   119.00    0.702   0.702   0.702   0.702   0.702   0.702   0.702   0.702   0.702   0.702   0.702   0.702   0.702   0.702   0.702   0.702   0.702   0.702   0.702   0.702   0.702   0.702   0.702   0.702   0.702   0.702   0.702   0.702   0.702   0.702   0.702
   114.17    0.702   0.702   0.702   0.702   0.702   0.702   0.702   0.702   0.702   0.702   0.702   0.702   0.702   0.702   0.702   0.702   0.702   0.702   0.702   0.702   0.702   0.702   0.702   0.702   0.702   0.702   0.702   0.702   0.702   0.702   0.702
   109.33    0.702   0.702   0.702   0.702   0.702   0.702   0.702   0.702   0.702   0.702   0.702   0.702   0.702   0.702   0.702   0.702   0.702   0.702   0.702   0.702   0.702   0.702   0.702   0.702   0.702   0.702   0.702   0.702   0.702   0.702   0.702
   104.50    0.702   0.702   0.702   0.702   0.702   0.702   0.702   0.702   0.702   0.702   0.702   0.702   0.702   0.702   0.702   0.702   0.702   0.702   0.702   0.702   0.702   0.702   0.702   0.702   0.702   0.702   0.702   0.702   0.702   0.702   0.702
    99.67    0.702   0.702   0.702   0.702   0.702   0.702   0.702   0.702   0.702   0.702   0.702   0.702   0.702   0.702   0.702   0.702   0.702   0.702   0.702   0.702   0.702   0.702   0.702   0.702   0.702   0.702   0.702   0.702   0.702   0.702   0.702
    94.83    0.702   0.702   0.702   0.702   0.702   0.702   0.702   0.702   0.702   0.702   0.702   0.702   0.702   0.702   0.702   0.702   0.702   0.702   0.702   0.702   0.702   0.702   0.702   0.702   0.702   0.702   0.702   0.702   0.702   0.702   0.702
    90.00    0.702   0.702   0.702   0.702   0.702   0.702   0.702   0.702   0.702   0.702   0.702   0.702   0.702   0.702   0.702   0.702   0.702   0.702   0.702   0.702   0.702   0.702   0.702   0.702   0.702   0.702   0.702   0.702   0.702   0.702   0.702
    85.17    0.702   0.702   0.702   0.702   0.702   0.702   0.702   0.702   0.702   0.702   0.702   0.702   0.702   0.702   0.702   0.702   0.702   0.702   0.702   0.702   0.702   0.702   0.702   0.702   0.702   0.702   0.702   0.702   0.702   0.702   0.702
    80.33    0.702   0.702   0.702   0.702   0.702   0.702   0.702   0.702   0.702   0.702   0.702   0.702   0.702   0.702   0.702   0.702   0.702   0.702   0.702   0.702   0.702   0.702   0.702   0.702   0.702   0.702   0.702   0.702   0.702   0.702   0.702
    75.50    0.702   0.702   0.702   0.702   0.702   0.702   0.702   0.702   0.702   0.702   0.702   0.702   0.702   0.702   0.702   0.702   0.702   0.702   0.702   0.702   0.702   0.702   0.702   0.702   0.702   0.702   0.702   0.702   0.702   0.702   0.702
    70.67    0.702   0.702   0.702   0.702   0.702   0.702   0.702   0.702   0.702   0.702   0.702   0.702   0.702   0.702   0.702   0.702   0.702   0.702   0.702   0.702   0.702   0.702   0.702   0.702   0.702   0.702   0.702   0.702   0.702   0.702   0.702
    65.83    0.702   0.702   0.702   0.702   0.702   0.702   0.702   0.702   0.702   0.702   0.702   0.702   0.702   0.702   0.702   0.702   0.702   0.702   0.702   0.702   0.702   0.702   0.702   0.702   0.702   0.702   0.702   0.702   0.702   0.702   0.702
    61.00    0.702   0.702   0.702   0.702   0.702   0.702   0.702   0.702   0.702   0.702   0.702   0.702   0.702   0.702   0.702   0.702   0.702   0.702   0.702   0.702   0.702   0.702   0.702   0.702   0.702   0.702   0.702   0.702   0.702   0.702   0.702
    56.17    0.702   0.702   0.702   0.702   0.702   0.702   0.702   0.702   0.702   0.702   0.702   0.702   0.702   0.702   0.702   0.702   0.702   0.702   0.702   0.702   0.702   0.702   0.702   0.702   0.702   0.702   0.702   0.702   0.702   0.702   0.702
    51.33    0.702   0.702   0.702   0.702   0.702   0.702   0.702   0.702   0.702   0.702   0.702   0.702   0.702   0.702   0.702   0.702   0.702   0.702   0.702   0.702   0.702   0.702   0.702   0.702   0.702   0.702   0.702   0.702   0.702   0.702   0.702
    46.50    0.702   0.702   0.702   0.702   0.702   0.702   0.702   0.702   0.702   0.702   0.702   0.702   0.702   0.702   0.702   0.702   0.702   0.702   0.702   0.702   0.702   0.702   0.702   0.702   0.702   0.702   0.702   0.702   0.702   0.702   0.702
    41.67    0.702   0.702   0.702   0.702   0.702   0.702   0.702   0.702   0.702   0.702   0.702   0.702   0.702   0.702   0.702   0.702   0.702   0.702   0.702   0.702   0.702   0.702   0.702   0.702   0.702   0.702   0.702   0.702   0.702   0.702   0.702
    36.83    0.702   0.702   0.702   0.702   0.702   0.702   0.702   0.702   0.702   0.702   0.702   0.702   0.702   0.702   0.702   0.702   0.702   0.702   0.702   0.702   0.702   0.702   0.702   0.702   0.702   0.702   0.702   0.702   0.702   0.702   0.702
    32.00    0.702   0.702   0.702   0.702   0.702   0.702   0.702   0.702   0.702   0.702   0.702   0.702   0.702   0.702   0.702   0.702   0.702   0.702   0.702   0.702   0.702   0.702   0.702   0.702   0.702   0.702   0.702   0.702   0.702   0.702   0.702
    27.17    0.702   0.702   0.702   0.702   0.702   0.702   0.702   0.702   0.702   0.702   0.702   0.702   0.702   0.702   0.702   0.702   0.702   0.702   0.702   0.702   0.702   0.702   0.702   0.702   0.702   0.702   0.702   0.702   0.702   0.702   0.702
    22.33    0.702   0.702   0.702   0.702   0.702   0.702   0.702   0.702   0.702   0.702   0.702   0.702   0.702   0.702   0.702   0.702   0.702   0.702   0.702   0.702   0.702   0.702   0.702   0.702   0.702   0.702   0.702   0.702   0.702   0.702   0.702
    17.50    0.702   0.702   0.702   0.702   0.702   0.702   0.702   0.702   0.702   0.702   0.702   0.702   0.702   0.702   0.702   0.702   0.702   0.702   0.702   0.702   0.702   0.702   0.702   0.702   0.702   0.702   0.702   0.702   0.702   0.702   0.702

   Height   Standard deviation at grid points for the w component:
   162.50    0.441   0.441   0.441   0.441   0.441   0.441   0.441   0.441   0.441   0.441   0.441   0.441   0.441   0.441   0.441   0.441   0.441   0.441   0.441   0.441   0.441   0.441   0.441   0.441   0.441   0.441   0.441   0.441   0.441   0.441   0.441
   157.67    0.441   0.441   0.441   0.441   0.441   0.441   0.441   0.441   0.441   0.441   0.441   0.441   0.441   0.441   0.441   0.441   0.441   0.441   0.441   0.441   0.441   0.441   0.441   0.441   0.441   0.441   0.441   0.441   0.441   0.441   0.441
   152.83    0.441   0.441   0.441   0.441   0.441   0.441   0.441   0.441   0.441   0.441   0.441   0.441   0.441   0.441   0.441   0.441   0.441   0.441   0.441   0.441   0.441   0.441   0.441   0.441   0.441   0.441   0.441   0.441   0.441   0.441   0.441
   148.00    0.441   0.441   0.441   0.441   0.441   0.441   0.441   0.441   0.441   0.441   0.441   0.441   0.441   0.441   0.441   0.441   0.441   0.441   0.441   0.441   0.441   0.441   0.441   0.441   0.441   0.441   0.441   0.441   0.441   0.441   0.441
   143.17    0.441   0.441   0.441   0.441   0.441   0.441   0.441   0.441   0.441   0.441   0.441   0.441   0.441   0.441   0.441   0.441   0.441   0.441   0.441   0.441   0.441   0.441   0.441   0.441   0.441   0.441   0.441   0.441   0.441   0.441   0.441
   138.33    0.441   0.441   0.441   0.441   0.441   0.441   0.441   0.441   0.441   0.441   0.441   0.441   0.441   0.441   0.441   0.441   0.441   0.441   0.441   0.441   0.441   0.441   0.441   0.441   0.441   0.441   0.441   0.441   0.441   0.441   0.441
   133.50    0.441   0.441   0.441   0.441   0.441   0.441   0.441   0.441   0.441   0.441   0.441   0.441   0.441   0.441   0.441   0.441   0.441   0.441   0.441   0.441   0.441   0.441   0.441   0.441   0.441   0.441   0.441   0.441   0.441   0.441   0.441
   128.67    0.441   0.441   0.441   0.441   0.441   0.441   0.441   0.441   0.441   0.441   0.441   0.441   0.441   0.441   0.441   0.441   0.441   0.441   0.441   0.441   0.441   0.441   0.441   0.441   0.441   0.441   0.441   0.441   0.441   0.441   0.441
   123.83    0.441   0.441   0.441   0.441   0.441   0.441   0.441   0.441   0.441   0.441   0.441   0.441   0.441   0.441   0.441   0.441   0.441   0.441   0.441   0.441   0.441   0.441   0.441   0.441   0.441   0.441   0.441   0.441   0.441   0.441   0.441
   119.00    0.441   0.441   0.441   0.441   0.441   0.441   0.441   0.441   0.441   0.441   0.441   0.441   0.441   0.441   0.441   0.441   0.441   0.441   0.441   0.441   0.441   0.441   0.441   0.441   0.441   0.441   0.441   0.441   0.441   0.441   0.441
   114.17    0.441   0.441   0.441   0.441   0.441   0.441   0.441   0.441   0.441   0.441   0.441   0.441   0.441   0.441   0.441   0.441   0.441   0.441   0.441   0.441   0.441   0.441   0.441   0.441   0.441   0.441   0.441   0.441   0.441   0.441   0.441
   109.33    0.441   0.441   0.441   0.441   0.441   0.441   0.441   0.441   0.441   0.441   0.441   0.441   0.441   0.441   0.441   0.441   0.441   0.441   0.441   0.441   0.441   0.441   0.441   0.441   0.441   0.441   0.441   0.441   0.441   0.441   0.441
   104.50    0.441   0.441   0.441   0.441   0.441   0.441   0.441   0.441   0.441   0.441   0.441   0.441   0.441   0.441   0.441   0.441   0.441   0.441   0.441   0.441   0.441   0.441   0.441   0.441   0.441   0.441   0.441   0.441   0.441   0.441   0.441
    99.67    0.441   0.441   0.441   0.441   0.441   0.441   0.441   0.441   0.441   0.441   0.441   0.441   0.441   0.441   0.441   0.441   0.441   0.441   0.441   0.441   0.441   0.441   0.441   0.441   0.441   0.441   0.441   0.441   0.441   0.441   0.441
    94.83    0.441   0.441   0.441   0.441   0.441   0.441   0.441   0.441   0.441   0.441   0.441   0.441   0.441   0.441   0.441   0.441   0.441   0.441   0.441   0.441   0.441   0.441   0.441   0.441   0.441   0.441   0.441   0.441   0.441   0.441   0.441
    90.00    0.441   0.441   0.441   0.441   0.441   0.441   0.441   0.441   0.441   0.441   0.441   0.441   0.441   0.441   0.441   0.441   0.441   0.441   0.441   0.441   0.441   0.441   0.441   0.441   0.441   0.441   0.441   0.441   0.441   0.441   0.441
    85.17    0.441   0.441   0.441   0.441   0.441   0.441   0.441   0.441   0.441   0.441   0.441   0.441   0.441   0.441   0.441   0.441   0.441   0.441   0.441   0.441   0.441   0.441   0.441   0.441   0.441   0.441   0.441   0.441   0.441   0.441   0.441
    80.33    0.441   0.441   0.441   0.441   0.441   0.441   0.441   0.441   0.441   0.441   0.441   0.441   0.441   0.441   0.441   0.441   0.441   0.441   0.441   0.441   0.441   0.441   0.441   0.441   0.441   0.441   0.441   0.441   0.441   0.441   0.441
    75.50    0.441   0.441   0.441   0.441   0.441   0.441   0.441   0.441   0.441   0.441   0.441   0.441   0.441   0.441   0.441   0.441   0.441   0.441   0.441   0.441   0.441   0.441   0.441   0.441   0.441   0.441   0.441   0.441   0.441   0.441   0.441
    70.67    0.441   0.441   0.441   0.441   0.441   0.441   0.441   0.441   0.441   0.441   0.441   0.441   0.441   0.441   0.441   0.441   0.441   0.441   0.441   0.441   0.441   0.441   0.441   0.441   0.441   0.441   0.441   0.441   0.441   0.441   0.441
    65.83    0.441   0.441   0.441   0.441   0.441   0.441   0.441   0.441   0.441   0.441   0.441   0.441   0.441   0.441   0.441   0.441   0.441   0.441   0.441   0.441   0.441   0.441   0.441   0.441   0.441   0.441   0.441   0.441   0.441   0.441   0.441
    61.00    0.441   0.441   0.441   0.441   0.441   0.441   0.441   0.441   0.441   0.441   0.441   0.441   0.441   0.441   0.441   0.441   0.441   0.441   0.441   0.441   0.441   0.441   0.441   0.441   0.441   0.441   0.441   0.441   0.441   0.441   0.441
    56.17    0.441   0.441   0.441   0.441   0.441   0.441   0.441   0.441   0.441   0.441   0.441   0.441   0.441   0.441   0.441   0.441   0.441   0.441   0.441   0.441   0.441   0.441   0.441   0.441   0.441   0.441   0.441   0.441   0.441   0.441   0.441
    51.33    0.441   0.441   0.441   0.441   0.441   0.441   0.441   0.441   0.441   0.441   0.441   0.441   0.441   0.441   0.441   0.441   0.441   0.441   0.441   0.441   0.441   0.441   0.441   0.441   0.441   0.441   0.441   0.441   0.441   0.441   0.441
    46.50    0.441   0.441   0.441   0.441   0.441   0.441   0.441   0.441   0.441   0.441   0.441   0.441   0.441   0.441   0.441   0.441   0.441   0.441   0.441   0.441   0.441   0.441   0.441   0.441   0.441   0.441   0.441   0.441   0.441   0.441   0.441
    41.67    0.441   0.441   0.441   0.441   0.441   0.441   0.441   0.441   0.441   0.441   0.441   0.441   0.441   0.441   0.441   0.441   0.441   0.441   0.441   0.441   0.441   0.441   0.441   0.441   0.441   0.441   0.441   0.441   0.441   0.441   0.441
    36.83    0.441   0.441   0.441   0.441   0.441   0.441   0.441   0.441   0.441   0.441   0.441   0.441   0.441   0.441   0.441   0.441   0.441   0.441   0.441   0.441   0.441   0.441   0.441   0.441   0.441   0.441   0.441   0.441   0.441   0.441   0.441
    32.00    0.441   0.441   0.441   0.441   0.441   0.441   0.441   0.441   0.441   0.441   0.441   0.441   0.441   0.441   0.441   0.441   0.441   0.441   0.441   0.441   0.441   0.441   0.441   0.441   0.441   0.441   0.441   0.441   0.441   0.441   0.441
    27.17    0.441   0.441   0.441   0.441   0.441   0.441   0.441   0.441   0.441   0.441   0.441   0.441   0.441   0.441   0.441   0.441   0.441   0.441   0.441   0.441   0.441   0.441   0.441   0.441   0.441   0.441   0.441   0.441   0.441   0.441   0.441
    22.33    0.441   0.441   0.441   0.441   0.441   0.441   0.441   0.441   0.441   0.441   0.441   0.441   0.441   0.441   0.441   0.441   0.441   0.441   0.441   0.441   0.441   0.441   0.441   0.441   0.441   0.441   0.441   0.441   0.441   0.441   0.441
    17.50    0.441   0.441   0.441   0.441   0.441   0.441   0.441   0.441   0.441   0.441   0.441   0.441   0.441   0.441   0.441   0.441   0.441   0.441   0.441   0.441   0.441   0.441   0.441   0.441   0.441   0.441   0.441   0.441   0.441   0.441   0.441

   Mean standard deviation across all grid points:
      u component:    0.859 m/s
      v component:    0.702 m/s
      w component:    0.441 m/s


U-component (X) statistics from the interpolated hub point:

   Mean =   9.0000 m/s
   TI   =   8.0872 %


Processing complete.  35.906 CPU seconds used.
