
This summary file was generated by TurbSim (from OpenFAST-v3.5.4) on 21-Aug-2025 at 18:09:06.


Runtime Options:

     13428  Random seed #1
    RANLUX  Type of random number generator
         F  Output binary HH turbulence parameters?
         F  Output formatted turbulence parameters?
         F  Output AeroDyn HH files?
         T  Output AeroDyn FF files?
         F  Output BLADED FF files?
         T  Output tower data?
         F  Output HAWC FF files?
         F  Output formatted FF files?
         F  Output coherent turbulence time step file?
 0 -  NONE  IEC turbulence models scaled to exact specified standard deviation


Turbine/Model Specifications:

        31  Vertical grid-point matrix dimension
        31  Horizontal grid-point matrix dimension
     0.050  Time step [seconds]
   660.000  Analysis time [seconds]
   660.000  Usable output time [seconds]
    90.000  Hub height [m]
   145.000  Grid height [m]
   145.000  Grid width [m]
     0.000  Vertical flow angle [degrees]
     0.000  Horizontal flow angle [degrees]


Meteorological Boundary Conditions:

    IECKAI  IEC Kaimal spectral model
         1  IEC standard: IEC 61400-1 Ed. 3: 2005
     5.000  Percent turbulence intensity, IEC 61400-1 Ed. 3: 2005
       NTM  IEC Normal Turbulence Model
       N/A  IEC Extreme Turbulence Model (ETM) "c" parameter [m/s]
       PL   Wind profile type
    90.000  Reference height [m]
     9.000  Reference wind speed [m/s]
       N/A  Jet height [m]
     0.200  Power law exponent
     0.030  Surface roughness length [m]


Non-IEC Meteorological Boundary Conditions:

       N/A  Site latitude [degrees]
       N/A  Gradient Richardson number
       N/A  Friction or shear velocity [m/s]
       N/A  Mixing layer depth [m]
       N/A  Mean hub u'w' Reynolds stress
       N/A  Mean hub u'v' Reynolds stress
       N/A  Mean hub v'w' Reynolds stress


Spatial Coherence Models:

       IEC  u-component coherence model
      NONE  v-component coherence model
      NONE  w-component coherence model
(   12.000, 0.353E-03)  u-component coherence parameters
                   N/A  v-component coherence parameters
                   N/A  w-component coherence parameters
       N/A  Coherence exponent


You have requested that the following file(s) be generated:

   NREL5MW/NREL5MW_v9_TI5.bts (AeroDyn/TurbSim full-field wind file)


Turbulence Simulation Scaling Parameter Summary:

   Turbulence model used                            =  IEC Kaimal
   Turbulence characteristic                        =  User-specified
   IEC standard                                     =  IEC 61400-1 Ed. 3: 2005
   Mean wind speed at hub height                    =    9.000 m/s
   Characteristic value of standard deviation       =    0.450 m/s
   Turbulence scale                                 =   42.000 m
   u-component integral scale                       =  340.200 m
   Coherency scale                                  =  340.200 m
   Characteristic value of hub turbulence intensity =    5.000%
   Gradient Richardson number                       =    0.000

   Wind profile type                                =  Power law
   Power law exponent                               =    0.200
   Mean shear across rotor disk                     =    0.025 (m/s)/m
   Assumed rotor diameter                           =  145.000 m
   Surface roughness length                         =    0.030 m

   Nyquist frequency of turbulent wind field        =   10.000 Hz

   Number of time steps in the FFT                  =    13200
   Number of time steps output                      =    13200
   Number of points simulated                       =      964


Mean Flow Angles:

   Vertical   =   0.0 degrees
   Horizontal =   0.0 degrees

Mean Wind Speed Profile:

   Height    Wind Speed   Horizontal Angle  Vertical Angle  U-comp (X)   V-comp (Y)   W-comp (Z)
     (m)        (m/s)         (degrees)       (degrees)       (m/s)        (m/s)        (m/s)   
   ------    ----------   ----------------  --------------  ----------   ----------   ----------
    162.5       10.13            0.00            0.00         10.13         0.00         0.00
    157.7       10.07            0.00            0.00         10.07         0.00         0.00
    152.8       10.01            0.00            0.00         10.01         0.00         0.00
    148.0        9.94            0.00            0.00          9.94         0.00         0.00
    143.2        9.88            0.00            0.00          9.88         0.00         0.00
    138.3        9.81            0.00            0.00          9.81         0.00         0.00
    133.5        9.74            0.00            0.00          9.74         0.00         0.00
    128.7        9.67            0.00            0.00          9.67         0.00         0.00
    123.8        9.59            0.00            0.00          9.59         0.00         0.00
    119.0        9.52            0.00            0.00          9.52         0.00         0.00
    114.2        9.44            0.00            0.00          9.44         0.00         0.00
    109.3        9.36            0.00            0.00          9.36         0.00         0.00
    104.5        9.27            0.00            0.00          9.27         0.00         0.00
     99.7        9.19            0.00            0.00          9.19         0.00         0.00
     94.8        9.09            0.00            0.00          9.09         0.00         0.00
     90.0        9.00            0.00            0.00          9.00         0.00         0.00
     85.2        8.90            0.00            0.00          8.90         0.00         0.00
     80.3        8.80            0.00            0.00          8.80         0.00         0.00
     75.5        8.69            0.00            0.00          8.69         0.00         0.00
     70.7        8.58            0.00            0.00          8.58         0.00         0.00
     65.8        8.45            0.00            0.00          8.45         0.00         0.00
     61.0        8.33            0.00            0.00          8.33         0.00         0.00
     56.2        8.19            0.00            0.00          8.19         0.00         0.00
     51.3        8.04            0.00            0.00          8.04         0.00         0.00
     46.5        7.89            0.00            0.00          7.89         0.00         0.00
     41.7        7.72            0.00            0.00          7.72         0.00         0.00
     36.8        7.53            0.00            0.00          7.53         0.00         0.00
     32.0        7.32            0.00            0.00          7.32         0.00         0.00
     27.2        7.08            0.00            0.00          7.08         0.00         0.00
     22.3        6.81            0.00            0.00          6.81         0.00         0.00
     17.5        6.49            0.00            0.00          6.49         0.00         0.00
     12.7        6.08            0.00            0.00          6.08         0.00         0.00
      7.8        5.52            0.00            0.00          5.52         0.00         0.00
      3.0        4.56            0.00            0.00          4.56         0.00         0.00


Harvested Random Seeds after Generation of the Random Numbers:

    177351900 K 1
            0 K 2


Hub-Height Simulated Turbulence Statistical Summary:

   Type of Wind        Min (m/s)   Mean (m/s)    Max (m/s)  Sigma (m/s)       TI (%)
   ----------------    ---------   ----------    ---------  -----------       ------
   Longitudinal (u)         7.81         9.00        10.18        0.364        4.044
   Lateral (v)             -1.17         0.00         1.33        0.351        3.901
   Vertical (w)            -0.87         0.00         0.83        0.220        2.450
   U component              7.81         9.00        10.18        0.364        4.044
   V component             -1.17         0.00         1.33        0.351        3.901
   W component             -0.87         0.00         0.83        0.220        2.450
   Horizontal (U&V)         7.81         9.01        10.18        0.364        4.046
   Total                    7.81         9.01        10.18        0.364        4.043

                       Min Reynolds     Mean Reynolds    Max Reynolds    Correlation
   Product             Stress (m/s)^2   Stress (m/s)^2   Stress (m/s)^2  Coefficient
   ----------------    --------------   --------------   --------------  -----------
   u'w'                     -0.473            -0.007             0.435        -0.090
   u'v'                     -0.673             0.011             0.622         0.084
   v'w'                     -0.565             0.000             0.546         0.001


   Friction Velocity (Ustar)  =      0.085 m/s
   Maximum Instantaneous TKE  =      0.912 (m/s)^2
   Maximum Instantaneous CTKE =      0.408 (m/s)^2


Grid Point Variance Summary:

   Y-coord  -72.50  -67.67  -62.83  -58.00  -53.17  -48.33  -43.50  -38.67  -33.83  -29.00  -24.17  -19.33  -14.50   -9.67   -4.83    0.00    4.83    9.67   14.50   19.33   24.17   29.00   33.83   38.67   43.50   48.33   53.17   58.00   62.83   67.67   72.50

   Height   Standard deviation at grid points for the u component:
   162.50    0.384   0.366   0.367   0.369   0.388   0.407   0.385   0.386   0.374   0.385   0.379   0.355   0.376   0.374   0.399   0.412   0.415   0.391   0.411   0.450   0.408   0.401   0.432   0.423   0.415   0.411   0.431   0.410   0.425   0.406   0.389
   157.67    0.393   0.371   0.373   0.366   0.369   0.392   0.400   0.367   0.368   0.386   0.377   0.374   0.386   0.368   0.395   0.398   0.426   0.419   0.424   0.447   0.413   0.415   0.420   0.406   0.438   0.423   0.424   0.407   0.426   0.396   0.400
   152.83    0.393   0.397   0.366   0.382   0.378   0.385   0.366   0.361   0.388   0.402   0.395   0.393   0.413   0.411   0.399   0.394   0.408   0.433   0.436   0.452   0.441   0.447   0.443   0.396   0.414   0.403   0.412   0.421   0.435   0.390   0.397
   148.00    0.366   0.400   0.404   0.378   0.388   0.365   0.371   0.385   0.389   0.393   0.389   0.418   0.420   0.449   0.424   0.431   0.424   0.443   0.468   0.488   0.465   0.481   0.479   0.430   0.413   0.437   0.411   0.448   0.427   0.406   0.403
   143.17    0.368   0.373   0.380   0.366   0.381   0.379   0.366   0.372   0.360   0.415   0.415   0.422   0.403   0.433   0.422   0.422   0.443   0.441   0.458   0.464   0.457   0.455   0.460   0.436   0.419   0.399   0.440   0.438   0.425   0.411   0.402
   138.33    0.379   0.383   0.410   0.391   0.373   0.387   0.379   0.383   0.389   0.425   0.438   0.474   0.465   0.457   0.432   0.441   0.438   0.449   0.457   0.460   0.453   0.458   0.454   0.440   0.426   0.411   0.440   0.432   0.440   0.444   0.434
   133.50    0.365   0.394   0.393   0.406   0.388   0.407   0.413   0.405   0.417   0.423   0.459   0.461   0.499   0.458   0.439   0.451   0.453   0.452   0.456   0.461   0.454   0.439   0.440   0.426   0.440   0.440   0.439   0.440   0.435   0.408   0.416
   128.67    0.375   0.401   0.404   0.408   0.418   0.410   0.420   0.459   0.453   0.456   0.476   0.468   0.481   0.481   0.455   0.470   0.479   0.467   0.483   0.492   0.461   0.459   0.450   0.426   0.450   0.430   0.414   0.438   0.403   0.389   0.391
   123.83    0.391   0.398   0.410   0.428   0.461   0.445   0.449   0.475   0.481   0.452   0.485   0.468   0.460   0.460   0.446   0.468   0.454   0.461   0.484   0.491   0.470   0.480   0.471   0.443   0.441   0.424   0.426   0.434   0.424   0.395   0.390
   119.00    0.368   0.379   0.379   0.416   0.448   0.453   0.448   0.455   0.458   0.473   0.472   0.458   0.463   0.470   0.477   0.472   0.477   0.473   0.504   0.467   0.485   0.464   0.452   0.455   0.454   0.436   0.416   0.426   0.435   0.408   0.413
   114.17    0.383   0.401   0.403   0.435   0.448   0.431   0.441   0.426   0.428   0.461   0.481   0.455   0.461   0.459   0.458   0.448   0.486   0.483   0.495   0.464   0.461   0.477   0.480   0.470   0.473   0.472   0.455   0.419   0.410   0.385   0.394
   109.33    0.369   0.390   0.410   0.406   0.429   0.425   0.425   0.448   0.460   0.460   0.455   0.448   0.434   0.472   0.446   0.451   0.484   0.481   0.469   0.463   0.459   0.487   0.527   0.516   0.505   0.455   0.442   0.398   0.384   0.407   0.419
   104.50    0.414   0.409   0.387   0.408   0.442   0.438   0.431   0.428   0.445   0.440   0.444   0.423   0.451   0.455   0.458   0.417   0.438   0.455   0.447   0.470   0.480   0.496   0.528   0.515   0.500   0.471   0.423   0.415   0.405   0.407   0.453
    99.67    0.418   0.434   0.416   0.408   0.430   0.432   0.444   0.440   0.447   0.440   0.425   0.422   0.432   0.441   0.434   0.386   0.393   0.411   0.420   0.449   0.452   0.470   0.517   0.524   0.512   0.478   0.472   0.439   0.424   0.464   0.465
    94.83    0.420   0.402   0.411   0.409   0.428   0.427   0.442   0.441   0.438   0.443   0.402   0.411   0.425   0.428   0.406   0.386   0.367   0.393   0.428   0.422   0.453   0.476   0.492   0.495   0.515   0.515   0.500   0.448   0.438   0.449   0.443
    90.00    0.423   0.397   0.412   0.411   0.428   0.421   0.438   0.450   0.439   0.437   0.396   0.424   0.417   0.394   0.406   0.364   0.386   0.411   0.420   0.423   0.441   0.456   0.489   0.476   0.504   0.497   0.482   0.448   0.427   0.431   0.422
    85.17    0.424   0.412   0.378   0.402   0.425   0.439   0.436   0.459   0.452   0.417   0.428   0.431   0.400   0.400   0.398   0.397   0.395   0.392   0.430   0.453   0.438   0.452   0.474   0.488   0.477   0.463   0.485   0.479   0.447   0.433   0.442
    80.33    0.414   0.404   0.397   0.385   0.396   0.425   0.439   0.441   0.420   0.451   0.453   0.429   0.419   0.410   0.402   0.418   0.413   0.391   0.390   0.421   0.433   0.466   0.468   0.466   0.480   0.473   0.479   0.456   0.436   0.463   0.470
    75.50    0.423   0.400   0.404   0.406   0.420   0.399   0.412   0.429   0.423   0.448   0.432   0.439   0.441   0.405   0.392   0.379   0.386   0.386   0.392   0.395   0.418   0.441   0.455   0.425   0.456   0.460   0.454   0.442   0.424   0.441   0.461
    70.67    0.426   0.425   0.414   0.434   0.456   0.423   0.446   0.410   0.406   0.435   0.430   0.434   0.421   0.388   0.370   0.362   0.366   0.377   0.394   0.424   0.409   0.416   0.423   0.417   0.425   0.427   0.430   0.457   0.427   0.421   0.440
    65.83    0.428   0.438   0.450   0.437   0.483   0.434   0.442   0.428   0.389   0.419   0.421   0.428   0.386   0.381   0.385   0.370   0.372   0.367   0.417   0.425   0.437   0.414   0.430   0.439   0.401   0.407   0.444   0.435   0.410   0.431   0.457
    61.00    0.435   0.449   0.451   0.442   0.459   0.449   0.436   0.434   0.428   0.418   0.411   0.395   0.401   0.377   0.378   0.386   0.393   0.387   0.405   0.433   0.448   0.430   0.435   0.444   0.434   0.427   0.449   0.451   0.456   0.460   0.454
    56.17    0.419   0.442   0.455   0.447   0.445   0.442   0.452   0.455   0.472   0.441   0.427   0.404   0.380   0.402   0.376   0.397   0.418   0.406   0.442   0.435   0.435   0.437   0.431   0.437   0.439   0.419   0.453   0.444   0.442   0.462   0.466
    51.33    0.453   0.440   0.452   0.481   0.468   0.440   0.467   0.445   0.460   0.446   0.448   0.423   0.419   0.389   0.395   0.391   0.373   0.368   0.392   0.403   0.403   0.411   0.429   0.416   0.428   0.421   0.441   0.445   0.467   0.454   0.459
    46.50    0.440   0.446   0.459   0.487   0.482   0.447   0.472   0.460   0.459   0.440   0.434   0.425   0.413   0.395   0.399   0.414   0.372   0.383   0.412   0.394   0.399   0.411   0.423   0.424   0.430   0.444   0.444   0.440   0.468   0.451   0.481
    41.67    0.403   0.437   0.448   0.463   0.476   0.445   0.453   0.439   0.439   0.451   0.446   0.456   0.447   0.438   0.407   0.426   0.394   0.397   0.413   0.417   0.405   0.386   0.404   0.410   0.419   0.447   0.467   0.456   0.470   0.447   0.450
    36.83    0.457   0.446   0.436   0.443   0.439   0.425   0.432   0.443   0.436   0.436   0.428   0.428   0.451   0.431   0.410   0.406   0.393   0.388   0.390   0.408   0.407   0.390   0.404   0.428   0.437   0.436   0.475   0.444   0.442   0.420   0.459
    32.00    0.438   0.433   0.455   0.443   0.429   0.432   0.449   0.440   0.443   0.434   0.446   0.426   0.445   0.441   0.425   0.412   0.408   0.399   0.391   0.410   0.406   0.396   0.391   0.425   0.431   0.407   0.449   0.417   0.429   0.429   0.444
    27.17    0.474   0.453   0.435   0.426   0.425   0.422   0.434   0.443   0.469   0.484   0.464   0.452   0.474   0.423   0.416   0.427   0.439   0.422   0.399   0.405   0.396   0.406   0.394   0.423   0.407   0.412   0.418   0.427   0.391   0.415   0.413
    22.33    0.456   0.447   0.422   0.420   0.436   0.427   0.421   0.427   0.457   0.458   0.470   0.449   0.465   0.452   0.475   0.471   0.449   0.416   0.407   0.430   0.411   0.426   0.410   0.446   0.442   0.419   0.421   0.406   0.391   0.425   0.405
    17.50    0.425   0.421   0.460   0.428   0.444   0.419   0.444   0.448   0.462   0.450   0.447   0.473   0.457   0.453   0.481   0.480   0.493   0.430   0.430   0.418   0.428   0.418   0.414   0.416   0.428   0.434   0.439   0.409   0.414   0.399   0.411

   Height   Standard deviation at grid points for the v component:
   162.50    0.351   0.351   0.351   0.351   0.351   0.351   0.351   0.351   0.351   0.351   0.351   0.351   0.351   0.351   0.351   0.351   0.351   0.351   0.351   0.351   0.351   0.351   0.351   0.351   0.351   0.351   0.351   0.351   0.351   0.351   0.351
   157.67    0.351   0.351   0.351   0.351   0.351   0.351   0.351   0.351   0.351   0.351   0.351   0.351   0.351   0.351   0.351   0.351   0.351   0.351   0.351   0.351   0.351   0.351   0.351   0.351   0.351   0.351   0.351   0.351   0.351   0.351   0.351
   152.83    0.351   0.351   0.351   0.351   0.351   0.351   0.351   0.351   0.351   0.351   0.351   0.351   0.351   0.351   0.351   0.351   0.351   0.351   0.351   0.351   0.351   0.351   0.351   0.351   0.351   0.351   0.351   0.351   0.351   0.351   0.351
   148.00    0.351   0.351   0.351   0.351   0.351   0.351   0.351   0.351   0.351   0.351   0.351   0.351   0.351   0.351   0.351   0.351   0.351   0.351   0.351   0.351   0.351   0.351   0.351   0.351   0.351   0.351   0.351   0.351   0.351   0.351   0.351
   143.17    0.351   0.351   0.351   0.351   0.351   0.351   0.351   0.351   0.351   0.351   0.351   0.351   0.351   0.351   0.351   0.351   0.351   0.351   0.351   0.351   0.351   0.351   0.351   0.351   0.351   0.351   0.351   0.351   0.351   0.351   0.351
   138.33    0.351   0.351   0.351   0.351   0.351   0.351   0.351   0.351   0.351   0.351   0.351   0.351   0.351   0.351   0.351   0.351   0.351   0.351   0.351   0.351   0.351   0.351   0.351   0.351   0.351   0.351   0.351   0.351   0.351   0.351   0.351
   133.50    0.351   0.351   0.351   0.351   0.351   0.351   0.351   0.351   0.351   0.351   0.351   0.351   0.351   0.351   0.351   0.351   0.351   0.351   0.351   0.351   0.351   0.351   0.351   0.351   0.351   0.351   0.351   0.351   0.351   0.351   0.351
   128.67    0.351   0.351   0.351   0.351   0.351   0.351   0.351   0.351   0.351   0.351   0.351   0.351   0.351   0.351   0.351   0.351   0.351   0.351   0.351   0.351   0.351   0.351   0.351   0.351   0.351   0.351   0.351   0.351   0.351   0.351   0.351
   123.83    0.351   0.351   0.351   0.351   0.351   0.351   0.351   0.351   0.351   0.351   0.351   0.351   0.351   0.351   0.351   0.351   0.351   0.351   0.351   0.351   0.351   0.351   0.351   0.351   0.351   0.351   0.351   0.351   0.351   0.351   0.351
   119.00    0.351   0.351   0.351   0.351   0.351   0.351   0.351   0.351   0.351   0.351   0.351   0.351   0.351   0.351   0.351   0.351   0.351   0.351   0.351   0.351   0.351   0.351   0.351   0.351   0.351   0.351   0.351   0.351   0.351   0.351   0.351
   114.17    0.351   0.351   0.351   0.351   0.351   0.351   0.351   0.351   0.351   0.351   0.351   0.351   0.351   0.351   0.351   0.351   0.351   0.351   0.351   0.351   0.351   0.351   0.351   0.351   0.351   0.351   0.351   0.351   0.351   0.351   0.351
   109.33    0.351   0.351   0.351   0.351   0.351   0.351   0.351   0.351   0.351   0.351   0.351   0.351   0.351   0.351   0.351   0.351   0.351   0.351   0.351   0.351   0.351   0.351   0.351   0.351   0.351   0.351   0.351   0.351   0.351   0.351   0.351
   104.50    0.351   0.351   0.351   0.351   0.351   0.351   0.351   0.351   0.351   0.351   0.351   0.351   0.351   0.351   0.351   0.351   0.351   0.351   0.351   0.351   0.351   0.351   0.351   0.351   0.351   0.351   0.351   0.351   0.351   0.351   0.351
    99.67    0.351   0.351   0.351   0.351   0.351   0.351   0.351   0.351   0.351   0.351   0.351   0.351   0.351   0.351   0.351   0.351   0.351   0.351   0.351   0.351   0.351   0.351   0.351   0.351   0.351   0.351   0.351   0.351   0.351   0.351   0.351
    94.83    0.351   0.351   0.351   0.351   0.351   0.351   0.351   0.351   0.351   0.351   0.351   0.351   0.351   0.351   0.351   0.351   0.351   0.351   0.351   0.351   0.351   0.351   0.351   0.351   0.351   0.351   0.351   0.351   0.351   0.351   0.351
    90.00    0.351   0.351   0.351   0.351   0.351   0.351   0.351   0.351   0.351   0.351   0.351   0.351   0.351   0.351   0.351   0.351   0.351   0.351   0.351   0.351   0.351   0.351   0.351   0.351   0.351   0.351   0.351   0.351   0.351   0.351   0.351
    85.17    0.351   0.351   0.351   0.351   0.351   0.351   0.351   0.351   0.351   0.351   0.351   0.351   0.351   0.351   0.351   0.351   0.351   0.351   0.351   0.351   0.351   0.351   0.351   0.351   0.351   0.351   0.351   0.351   0.351   0.351   0.351
    80.33    0.351   0.351   0.351   0.351   0.351   0.351   0.351   0.351   0.351   0.351   0.351   0.351   0.351   0.351   0.351   0.351   0.351   0.351   0.351   0.351   0.351   0.351   0.351   0.351   0.351   0.351   0.351   0.351   0.351   0.351   0.351
    75.50    0.351   0.351   0.351   0.351   0.351   0.351   0.351   0.351   0.351   0.351   0.351   0.351   0.351   0.351   0.351   0.351   0.351   0.351   0.351   0.351   0.351   0.351   0.351   0.351   0.351   0.351   0.351   0.351   0.351   0.351   0.351
    70.67    0.351   0.351   0.351   0.351   0.351   0.351   0.351   0.351   0.351   0.351   0.351   0.351   0.351   0.351   0.351   0.351   0.351   0.351   0.351   0.351   0.351   0.351   0.351   0.351   0.351   0.351   0.351   0.351   0.351   0.351   0.351
    65.83    0.351   0.351   0.351   0.351   0.351   0.351   0.351   0.351   0.351   0.351   0.351   0.351   0.351   0.351   0.351   0.351   0.351   0.351   0.351   0.351   0.351   0.351   0.351   0.351   0.351   0.351   0.351   0.351   0.351   0.351   0.351
    61.00    0.351   0.351   0.351   0.351   0.351   0.351   0.351   0.351   0.351   0.351   0.351   0.351   0.351   0.351   0.351   0.351   0.351   0.351   0.351   0.351   0.351   0.351   0.351   0.351   0.351   0.351   0.351   0.351   0.351   0.351   0.351
    56.17    0.351   0.351   0.351   0.351   0.351   0.351   0.351   0.351   0.351   0.351   0.351   0.351   0.351   0.351   0.351   0.351   0.351   0.351   0.351   0.351   0.351   0.351   0.351   0.351   0.351   0.351   0.351   0.351   0.351   0.351   0.351
    51.33    0.351   0.351   0.351   0.351   0.351   0.351   0.351   0.351   0.351   0.351   0.351   0.351   0.351   0.351   0.351   0.351   0.351   0.351   0.351   0.351   0.351   0.351   0.351   0.351   0.351   0.351   0.351   0.351   0.351   0.351   0.351
    46.50    0.351   0.351   0.351   0.351   0.351   0.351   0.351   0.351   0.351   0.351   0.351   0.351   0.351   0.351   0.351   0.351   0.351   0.351   0.351   0.351   0.351   0.351   0.351   0.351   0.351   0.351   0.351   0.351   0.351   0.351   0.351
    41.67    0.351   0.351   0.351   0.351   0.351   0.351   0.351   0.351   0.351   0.351   0.351   0.351   0.351   0.351   0.351   0.351   0.351   0.351   0.351   0.351   0.351   0.351   0.351   0.351   0.351   0.351   0.351   0.351   0.351   0.351   0.351
    36.83    0.351   0.351   0.351   0.351   0.351   0.351   0.351   0.351   0.351   0.351   0.351   0.351   0.351   0.351   0.351   0.351   0.351   0.351   0.351   0.351   0.351   0.351   0.351   0.351   0.351   0.351   0.351   0.351   0.351   0.351   0.351
    32.00    0.351   0.351   0.351   0.351   0.351   0.351   0.351   0.351   0.351   0.351   0.351   0.351   0.351   0.351   0.351   0.351   0.351   0.351   0.351   0.351   0.351   0.351   0.351   0.351   0.351   0.351   0.351   0.351   0.351   0.351   0.351
    27.17    0.351   0.351   0.351   0.351   0.351   0.351   0.351   0.351   0.351   0.351   0.351   0.351   0.351   0.351   0.351   0.351   0.351   0.351   0.351   0.351   0.351   0.351   0.351   0.351   0.351   0.351   0.351   0.351   0.351   0.351   0.351
    22.33    0.351   0.351   0.351   0.351   0.351   0.351   0.351   0.351   0.351   0.351   0.351   0.351   0.351   0.351   0.351   0.351   0.351   0.351   0.351   0.351   0.351   0.351   0.351   0.351   0.351   0.351   0.351   0.351   0.351   0.351   0.351
    17.50    0.351   0.351   0.351   0.351   0.351   0.351   0.351   0.351   0.351   0.351   0.351   0.351   0.351   0.351   0.351   0.351   0.351   0.351   0.351   0.351   0.351   0.351   0.351   0.351   0.351   0.351   0.351   0.351   0.351   0.351   0.351

   Height   Standard deviation at grid points for the w component:
   162.50    0.220   0.220   0.220   0.220   0.220   0.220   0.220   0.220   0.220   0.220   0.220   0.220   0.220   0.220   0.220   0.220   0.220   0.220   0.220   0.220   0.220   0.220   0.220   0.220   0.220   0.220   0.220   0.220   0.220   0.220   0.220
   157.67    0.220   0.220   0.220   0.220   0.220   0.220   0.220   0.220   0.220   0.220   0.220   0.220   0.220   0.220   0.220   0.220   0.220   0.220   0.220   0.220   0.220   0.220   0.220   0.220   0.220   0.220   0.220   0.220   0.220   0.220   0.220
   152.83    0.220   0.220   0.220   0.220   0.220   0.220   0.220   0.220   0.220   0.220   0.220   0.220   0.220   0.220   0.220   0.220   0.220   0.220   0.220   0.220   0.220   0.220   0.220   0.220   0.220   0.220   0.220   0.220   0.220   0.220   0.220
   148.00    0.220   0.220   0.220   0.220   0.220   0.220   0.220   0.220   0.220   0.220   0.220   0.220   0.220   0.220   0.220   0.220   0.220   0.220   0.220   0.220   0.220   0.220   0.220   0.220   0.220   0.220   0.220   0.220   0.220   0.220   0.220
   143.17    0.220   0.220   0.220   0.220   0.220   0.220   0.220   0.220   0.220   0.220   0.220   0.220   0.220   0.220   0.220   0.220   0.220   0.220   0.220   0.220   0.220   0.220   0.220   0.220   0.220   0.220   0.220   0.220   0.220   0.220   0.220
   138.33    0.220   0.220   0.220   0.220   0.220   0.220   0.220   0.220   0.220   0.220   0.220   0.220   0.220   0.220   0.220   0.220   0.220   0.220   0.220   0.220   0.220   0.220   0.220   0.220   0.220   0.220   0.220   0.220   0.220   0.220   0.220
   133.50    0.220   0.220   0.220   0.220   0.220   0.220   0.220   0.220   0.220   0.220   0.220   0.220   0.220   0.220   0.220   0.220   0.220   0.220   0.220   0.220   0.220   0.220   0.220   0.220   0.220   0.220   0.220   0.220   0.220   0.220   0.220
   128.67    0.220   0.220   0.220   0.220   0.220   0.220   0.220   0.220   0.220   0.220   0.220   0.220   0.220   0.220   0.220   0.220   0.220   0.220   0.220   0.220   0.220   0.220   0.220   0.220   0.220   0.220   0.220   0.220   0.220   0.220   0.220
   123.83    0.220   0.220   0.220   0.220   0.220   0.220   0.220   0.220   0.220   0.220   0.220   0.220   0.220   0.220   0.220   0.220   0.220   0.220   0.220   0.220   0.220   0.220   0.220   0.220   0.220   0.220   0.220   0.220   0.220   0.220   0.220
   119.00    0.220   0.220   0.220   0.220   0.220   0.220   0.220   0.220   0.220   0.220   0.220   0.220   0.220   0.220   0.220   0.220   0.220   0.220   0.220   0.220   0.220   0.220   0.220   0.220   0.220   0.220   0.220   0.220   0.220   0.220   0.220
   114.17    0.220   0.220   0.220   0.220   0.220   0.220   0.220   0.220   0.220   0.220   0.220   0.220   0.220   0.220   0.220   0.220   0.220   0.220   0.220   0.220   0.220   0.220   0.220   0.220   0.220   0.220   0.220   0.220   0.220   0.220   0.220
   109.33    0.220   0.220   0.220   0.220   0.220   0.220   0.220   0.220   0.220   0.220   0.220   0.220   0.220   0.220   0.220   0.220   0.220   0.220   0.220   0.220   0.220   0.220   0.220   0.220   0.220   0.220   0.220   0.220   0.220   0.220   0.220
   104.50    0.220   0.220   0.220   0.220   0.220   0.220   0.220   0.220   0.220   0.220   0.220   0.220   0.220   0.220   0.220   0.220   0.220   0.220   0.220   0.220   0.220   0.220   0.220   0.220   0.220   0.220   0.220   0.220   0.220   0.220   0.220
    99.67    0.220   0.220   0.220   0.220   0.220   0.220   0.220   0.220   0.220   0.220   0.220   0.220   0.220   0.220   0.220   0.220   0.220   0.220   0.220   0.220   0.220   0.220   0.220   0.220   0.220   0.220   0.220   0.220   0.220   0.220   0.220
    94.83    0.220   0.220   0.220   0.220   0.220   0.220   0.220   0.220   0.220   0.220   0.220   0.220   0.220   0.220   0.220   0.220   0.220   0.220   0.220   0.220   0.220   0.220   0.220   0.220   0.220   0.220   0.220   0.220   0.220   0.220   0.220
    90.00    0.220   0.220   0.220   0.220   0.220   0.220   0.220   0.220   0.220   0.220   0.220   0.220   0.220   0.220   0.220   0.220   0.220   0.220   0.220   0.220   0.220   0.220   0.220   0.220   0.220   0.220   0.220   0.220   0.220   0.220   0.220
    85.17    0.220   0.220   0.220   0.220   0.220   0.220   0.220   0.220   0.220   0.220   0.220   0.220   0.220   0.220   0.220   0.220   0.220   0.220   0.220   0.220   0.220   0.220   0.220   0.220   0.220   0.220   0.220   0.220   0.220   0.220   0.220
    80.33    0.220   0.220   0.220   0.220   0.220   0.220   0.220   0.220   0.220   0.220   0.220   0.220   0.220   0.220   0.220   0.220   0.220   0.220   0.220   0.220   0.220   0.220   0.220   0.220   0.220   0.220   0.220   0.220   0.220   0.220   0.220
    75.50    0.220   0.220   0.220   0.220   0.220   0.220   0.220   0.220   0.220   0.220   0.220   0.220   0.220   0.220   0.220   0.220   0.220   0.220   0.220   0.220   0.220   0.220   0.220   0.220   0.220   0.220   0.220   0.220   0.220   0.220   0.220
    70.67    0.220   0.220   0.220   0.220   0.220   0.220   0.220   0.220   0.220   0.220   0.220   0.220   0.220   0.220   0.220   0.220   0.220   0.220   0.220   0.220   0.220   0.220   0.220   0.220   0.220   0.220   0.220   0.220   0.220   0.220   0.220
    65.83    0.220   0.220   0.220   0.220   0.220   0.220   0.220   0.220   0.220   0.220   0.220   0.220   0.220   0.220   0.220   0.220   0.220   0.220   0.220   0.220   0.220   0.220   0.220   0.220   0.220   0.220   0.220   0.220   0.220   0.220   0.220
    61.00    0.220   0.220   0.220   0.220   0.220   0.220   0.220   0.220   0.220   0.220   0.220   0.220   0.220   0.220   0.220   0.220   0.220   0.220   0.220   0.220   0.220   0.220   0.220   0.220   0.220   0.220   0.220   0.220   0.220   0.220   0.220
    56.17    0.220   0.220   0.220   0.220   0.220   0.220   0.220   0.220   0.220   0.220   0.220   0.220   0.220   0.220   0.220   0.220   0.220   0.220   0.220   0.220   0.220   0.220   0.220   0.220   0.220   0.220   0.220   0.220   0.220   0.220   0.220
    51.33    0.220   0.220   0.220   0.220   0.220   0.220   0.220   0.220   0.220   0.220   0.220   0.220   0.220   0.220   0.220   0.220   0.220   0.220   0.220   0.220   0.220   0.220   0.220   0.220   0.220   0.220   0.220   0.220   0.220   0.220   0.220
    46.50    0.220   0.220   0.220   0.220   0.220   0.220   0.220   0.220   0.220   0.220   0.220   0.220   0.220   0.220   0.220   0.220   0.220   0.220   0.220   0.220   0.220   0.220   0.220   0.220   0.220   0.220   0.220   0.220   0.220   0.220   0.220
    41.67    0.220   0.220   0.220   0.220   0.220   0.220   0.220   0.220   0.220   0.220   0.220   0.220   0.220   0.220   0.220   0.220   0.220   0.220   0.220   0.220   0.220   0.220   0.220   0.220   0.220   0.220   0.220   0.220   0.220   0.220   0.220
    36.83    0.220   0.220   0.220   0.220   0.220   0.220   0.220   0.220   0.220   0.220   0.220   0.220   0.220   0.220   0.220   0.220   0.220   0.220   0.220   0.220   0.220   0.220   0.220   0.220   0.220   0.220   0.220   0.220   0.220   0.220   0.220
    32.00    0.220   0.220   0.220   0.220   0.220   0.220   0.220   0.220   0.220   0.220   0.220   0.220   0.220   0.220   0.220   0.220   0.220   0.220   0.220   0.220   0.220   0.220   0.220   0.220   0.220   0.220   0.220   0.220   0.220   0.220   0.220
    27.17    0.220   0.220   0.220   0.220   0.220   0.220   0.220   0.220   0.220   0.220   0.220   0.220   0.220   0.220   0.220   0.220   0.220   0.220   0.220   0.220   0.220   0.220   0.220   0.220   0.220   0.220   0.220   0.220   0.220   0.220   0.220
    22.33    0.220   0.220   0.220   0.220   0.220   0.220   0.220   0.220   0.220   0.220   0.220   0.220   0.220   0.220   0.220   0.220   0.220   0.220   0.220   0.220   0.220   0.220   0.220   0.220   0.220   0.220   0.220   0.220   0.220   0.220   0.220
    17.50    0.220   0.220   0.220   0.220   0.220   0.220   0.220   0.220   0.220   0.220   0.220   0.220   0.220   0.220   0.220   0.220   0.220   0.220   0.220   0.220   0.220   0.220   0.220   0.220   0.220   0.220   0.220   0.220   0.220   0.220   0.220

   Mean standard deviation across all grid points:
      u component:    0.430 m/s
      v component:    0.351 m/s
      w component:    0.220 m/s


U-component (X) statistics from the interpolated hub point:

   Mean =   9.0000 m/s
   TI   =   4.0436 %


Processing complete.  32.125 CPU seconds used.
