
This summary file was generated by TurbSim (from OpenFAST-v3.5.4) on 02-Sep-2025 at 12:25:37.


Runtime Options:

     13426  Random seed #1
    RANLUX  Type of random number generator
         F  Output binary HH turbulence parameters?
         F  Output formatted turbulence parameters?
         F  Output AeroDyn HH files?
         T  Output AeroDyn FF files?
         F  Output BLADED FF files?
         T  Output tower data?
         F  Output HAWC FF files?
         F  Output formatted FF files?
         T  Output coherent turbulence time step file?
 2 -   ALL  IEC turbulence models scaled to exact specified standard deviation


Turbine/Model Specifications:

        12  Vertical grid-point matrix dimension
        12  Horizontal grid-point matrix dimension
     0.050  Time step [seconds]
   660.000  Analysis time [seconds]
   660.000  Usable output time [seconds]
   110.000  Hub height [m]
   150.000  Grid height [m]
   150.000  Grid width [m]
     0.000  Vertical flow angle [degrees]
     0.000  Horizontal flow angle [degrees]


Meteorological Boundary Conditions:

    IECKAI  IEC Kaimal spectral model
         1  IEC standard: IEC 61400-1 Ed. 3: 2005
     8.000  Percent turbulence intensity, IEC 61400-1 Ed. 3: 2005
       NTM  IEC Normal Turbulence Model
       N/A  IEC Extreme Turbulence Model (ETM) "c" parameter [m/s]
       PL   Wind profile type
   110.000  Reference height [m]
     6.000  Reference wind speed [m/s]
       N/A  Jet height [m]
     0.200  Power law exponent
     0.030  Surface roughness length [m]


Non-IEC Meteorological Boundary Conditions:

       N/A  Site latitude [degrees]
       N/A  Gradient Richardson number
       N/A  Friction or shear velocity [m/s]
       N/A  Mixing layer depth [m]
       N/A  Mean hub u'w' Reynolds stress
       N/A  Mean hub u'v' Reynolds stress
       N/A  Mean hub v'w' Reynolds stress


Spatial Coherence Models:

       IEC  u-component coherence model
      NONE  v-component coherence model
      NONE  w-component coherence model
(   12.000, 0.353E-03)  u-component coherence parameters
                   N/A  v-component coherence parameters
                   N/A  w-component coherence parameters
       N/A  Coherence exponent


You have requested that the following file(s) be generated:

   SPW/v6/TI8.0/sd0/IEAonshore_6_sh0.2_TI8.0_sd0.bts (AeroDyn/TurbSim full-field wind file)


Turbulence Simulation Scaling Parameter Summary:

   Turbulence model used                            =  IEC Kaimal
   Turbulence characteristic                        =  User-specified
   IEC standard                                     =  IEC 61400-1 Ed. 3: 2005
   Mean wind speed at hub height                    =    6.000 m/s
   Characteristic value of standard deviation       =    0.480 m/s
   Turbulence scale                                 =   42.000 m
   u-component integral scale                       =  340.200 m
   Coherency scale                                  =  340.200 m
   Characteristic value of hub turbulence intensity =    8.000%
   Gradient Richardson number                       =    0.000

   Wind profile type                                =  Power law
   Power law exponent                               =    0.200
   Mean shear across rotor disk                     =    0.013 (m/s)/m
   Assumed rotor diameter                           =  150.000 m
   Surface roughness length                         =    0.030 m

   Nyquist frequency of turbulent wind field        =   10.000 Hz

   Number of time steps in the FFT                  =    13200
   Number of time steps output                      =    13200
   Number of points simulated                       =      148


Mean Flow Angles:

   Vertical   =   0.0 degrees
   Horizontal =   0.0 degrees

Mean Wind Speed Profile:

   Height    Wind Speed   Horizontal Angle  Vertical Angle  U-comp (X)   V-comp (Y)   W-comp (Z)
     (m)        (m/s)         (degrees)       (degrees)       (m/s)        (m/s)        (m/s)   
   ------    ----------   ----------------  --------------  ----------   ----------   ----------
    185.0        6.66            0.00            0.00          6.66         0.00         0.00
    171.4        6.56            0.00            0.00          6.56         0.00         0.00
    157.7        6.45            0.00            0.00          6.45         0.00         0.00
    144.1        6.33            0.00            0.00          6.33         0.00         0.00
    130.5        6.21            0.00            0.00          6.21         0.00         0.00
    116.8        6.07            0.00            0.00          6.07         0.00         0.00
    110.0        6.00            0.00            0.00          6.00         0.00         0.00
    103.2        5.92            0.00            0.00          5.92         0.00         0.00
     89.5        5.76            0.00            0.00          5.76         0.00         0.00
     75.9        5.57            0.00            0.00          5.57         0.00         0.00
     62.3        5.35            0.00            0.00          5.35         0.00         0.00
     48.6        5.10            0.00            0.00          5.10         0.00         0.00
     35.0        4.77            0.00            0.00          4.77         0.00         0.00
     21.4        4.32            0.00            0.00          4.32         0.00         0.00
      7.7        3.53            0.00            0.00          3.53         0.00         0.00


Harvested Random Seeds after Generation of the Random Numbers:

     27228300 K 1
            0 K 2


Scaling statistics from the hub grid point:

  Component  Target Sigma (m/s)  Simulated Sigma (m/s)  Scaling Factor
  ---------  ------------------  ---------------------  --------------
     u'             0.480                0.423                1.135
     v'             0.384                0.372                1.033
     w'             0.240                0.235                1.019


Hub-Height Simulated Turbulence Statistical Summary:

   Type of Wind        Min (m/s)   Mean (m/s)    Max (m/s)  Sigma (m/s)       TI (%)
   ----------------    ---------   ----------    ---------  -----------       ------
   Longitudinal (u)         4.73         6.00         7.32        0.480        8.000
   Lateral (v)             -1.13         0.00         1.27        0.384        6.400
   Vertical (w)            -0.71         0.00         0.78        0.240        4.000
   U component              4.73         6.00         7.32        0.480        8.000
   V component             -1.13         0.00         1.27        0.384        6.400
   W component             -0.71         0.00         0.78        0.240        4.000
   Horizontal (U&V)         4.75         6.01         7.32        0.478        7.956
   Total                    4.75         6.02         7.32        0.477        7.934

                       Min Reynolds     Mean Reynolds    Max Reynolds    Correlation
   Product             Stress (m/s)^2   Stress (m/s)^2   Stress (m/s)^2  Coefficient
   ----------------    --------------   --------------   --------------  -----------
   u'w'                     -0.614            -0.007             0.539        -0.058
   u'v'                     -1.506            -0.008             0.822        -0.046
   v'w'                     -0.617             0.001             0.549         0.014


   Friction Velocity (Ustar)  =      0.082 m/s
   Maximum Instantaneous TKE  =      1.540 (m/s)^2
   Maximum Instantaneous CTKE =      0.784 (m/s)^2


Grid Point Variance Summary:

   Y-coord  -75.00  -61.36  -47.73  -34.09  -20.45   -6.82    6.82   20.45   34.09   47.73   61.36   75.00

   Height   Standard deviation at grid points for the u component:
   185.00    0.480   0.480   0.480   0.480   0.480   0.480   0.480   0.480   0.480   0.480   0.480   0.480
   171.36    0.480   0.480   0.480   0.480   0.480   0.480   0.480   0.480   0.480   0.480   0.480   0.480
   157.73    0.480   0.480   0.480   0.480   0.480   0.480   0.480   0.480   0.480   0.480   0.480   0.480
   144.09    0.480   0.480   0.480   0.480   0.480   0.480   0.480   0.480   0.480   0.480   0.480   0.480
   130.45    0.480   0.480   0.480   0.480   0.480   0.480   0.480   0.480   0.480   0.480   0.480   0.480
   116.82    0.480   0.480   0.480   0.480   0.480   0.480   0.480   0.480   0.480   0.480   0.480   0.480
   103.18    0.480   0.480   0.480   0.480   0.480   0.480   0.480   0.480   0.480   0.480   0.480   0.480
    89.55    0.480   0.480   0.480   0.480   0.480   0.480   0.480   0.480   0.480   0.480   0.480   0.480
    75.91    0.480   0.480   0.480   0.480   0.480   0.480   0.480   0.480   0.480   0.480   0.480   0.480
    62.27    0.480   0.480   0.480   0.480   0.480   0.480   0.480   0.480   0.480   0.480   0.480   0.480
    48.64    0.480   0.480   0.480   0.480   0.480   0.480   0.480   0.480   0.480   0.480   0.480   0.480
    35.00    0.480   0.480   0.480   0.480   0.480   0.480   0.480   0.480   0.480   0.480   0.480   0.480

   Height   Standard deviation at grid points for the v component:
   185.00    0.384   0.384   0.384   0.384   0.384   0.384   0.384   0.384   0.384   0.384   0.384   0.384
   171.36    0.384   0.384   0.384   0.384   0.384   0.384   0.384   0.384   0.384   0.384   0.384   0.384
   157.73    0.384   0.384   0.384   0.384   0.384   0.384   0.384   0.384   0.384   0.384   0.384   0.384
   144.09    0.384   0.384   0.384   0.384   0.384   0.384   0.384   0.384   0.384   0.384   0.384   0.384
   130.45    0.384   0.384   0.384   0.384   0.384   0.384   0.384   0.384   0.384   0.384   0.384   0.384
   116.82    0.384   0.384   0.384   0.384   0.384   0.384   0.384   0.384   0.384   0.384   0.384   0.384
   103.18    0.384   0.384   0.384   0.384   0.384   0.384   0.384   0.384   0.384   0.384   0.384   0.384
    89.55    0.384   0.384   0.384   0.384   0.384   0.384   0.384   0.384   0.384   0.384   0.384   0.384
    75.91    0.384   0.384   0.384   0.384   0.384   0.384   0.384   0.384   0.384   0.384   0.384   0.384
    62.27    0.384   0.384   0.384   0.384   0.384   0.384   0.384   0.384   0.384   0.384   0.384   0.384
    48.64    0.384   0.384   0.384   0.384   0.384   0.384   0.384   0.384   0.384   0.384   0.384   0.384
    35.00    0.384   0.384   0.384   0.384   0.384   0.384   0.384   0.384   0.384   0.384   0.384   0.384

   Height   Standard deviation at grid points for the w component:
   185.00    0.240   0.240   0.240   0.240   0.240   0.240   0.240   0.240   0.240   0.240   0.240   0.240
   171.36    0.240   0.240   0.240   0.240   0.240   0.240   0.240   0.240   0.240   0.240   0.240   0.240
   157.73    0.240   0.240   0.240   0.240   0.240   0.240   0.240   0.240   0.240   0.240   0.240   0.240
   144.09    0.240   0.240   0.240   0.240   0.240   0.240   0.240   0.240   0.240   0.240   0.240   0.240
   130.45    0.240   0.240   0.240   0.240   0.240   0.240   0.240   0.240   0.240   0.240   0.240   0.240
   116.82    0.240   0.240   0.240   0.240   0.240   0.240   0.240   0.240   0.240   0.240   0.240   0.240
   103.18    0.240   0.240   0.240   0.240   0.240   0.240   0.240   0.240   0.240   0.240   0.240   0.240
    89.55    0.240   0.240   0.240   0.240   0.240   0.240   0.240   0.240   0.240   0.240   0.240   0.240
    75.91    0.240   0.240   0.240   0.240   0.240   0.240   0.240   0.240   0.240   0.240   0.240   0.240
    62.27    0.240   0.240   0.240   0.240   0.240   0.240   0.240   0.240   0.240   0.240   0.240   0.240
    48.64    0.240   0.240   0.240   0.240   0.240   0.240   0.240   0.240   0.240   0.240   0.240   0.240
    35.00    0.240   0.240   0.240   0.240   0.240   0.240   0.240   0.240   0.240   0.240   0.240   0.240

   Mean standard deviation across all grid points:
      u component:    0.480 m/s
      v component:    0.384 m/s
      w component:    0.240 m/s


U-component (X) statistics from the interpolated hub point:

   Mean =   5.9982 m/s
   TI   =   6.6456 %


Processing complete.  0.65625 CPU seconds used.
