
This summary file was generated by TurbSim (from OpenFAST-v3.5.4) on 28-Aug-2025 at 15:44:01.


Runtime Options:

     13426  Random seed #1
    RANLUX  Type of random number generator
         F  Output binary HH turbulence parameters?
         F  Output formatted turbulence parameters?
         F  Output AeroDyn HH files?
         T  Output AeroDyn FF files?
         F  Output BLADED FF files?
         T  Output tower data?
         F  Output HAWC FF files?
         F  Output formatted FF files?
         T  Output coherent turbulence time step file?
 2 -   ALL  IEC turbulence models scaled to exact specified standard deviation


Turbine/Model Specifications:

        12  Vertical grid-point matrix dimension
        12  Horizontal grid-point matrix dimension
     0.050  Time step [seconds]
   660.000  Analysis time [seconds]
   660.000  Usable output time [seconds]
    90.000  Hub height [m]
   150.000  Grid height [m]
   150.000  Grid width [m]
     0.000  Vertical flow angle [degrees]
     0.000  Horizontal flow angle [degrees]


Meteorological Boundary Conditions:

    IECKAI  IEC Kaimal spectral model
         1  IEC standard: IEC 61400-1 Ed. 3: 2005
     8.000  Percent turbulence intensity, IEC 61400-1 Ed. 3: 2005
       NTM  IEC Normal Turbulence Model
       N/A  IEC Extreme Turbulence Model (ETM) "c" parameter [m/s]
       PL   Wind profile type
    90.000  Reference height [m]
     9.000  Reference wind speed [m/s]
       N/A  Jet height [m]
     0.200  Power law exponent
     0.030  Surface roughness length [m]


Non-IEC Meteorological Boundary Conditions:

       N/A  Site latitude [degrees]
       N/A  Gradient Richardson number
       N/A  Friction or shear velocity [m/s]
       N/A  Mixing layer depth [m]
       N/A  Mean hub u'w' Reynolds stress
       N/A  Mean hub u'v' Reynolds stress
       N/A  Mean hub v'w' Reynolds stress


Spatial Coherence Models:

       IEC  u-component coherence model
      NONE  v-component coherence model
      NONE  w-component coherence model
(   12.000, 0.353E-03)  u-component coherence parameters
                   N/A  v-component coherence parameters
                   N/A  w-component coherence parameters
       N/A  Coherence exponent


You have requested that the following file(s) be generated:

   SPW/v9/TI8.0/sd0/NREL_2p3_9_sh0.2_TI8.0_sd0.bts (AeroDyn/TurbSim full-field wind file)


Turbulence Simulation Scaling Parameter Summary:

   Turbulence model used                            =  IEC Kaimal
   Turbulence characteristic                        =  User-specified
   IEC standard                                     =  IEC 61400-1 Ed. 3: 2005
   Mean wind speed at hub height                    =    9.000 m/s
   Characteristic value of standard deviation       =    0.720 m/s
   Turbulence scale                                 =   42.000 m
   u-component integral scale                       =  340.200 m
   Coherency scale                                  =  340.200 m
   Characteristic value of hub turbulence intensity =    8.000%
   Gradient Richardson number                       =    0.000

   Wind profile type                                =  Power law
   Power law exponent                               =    0.200
   Mean shear across rotor disk                     =    0.026 (m/s)/m
   Assumed rotor diameter                           =  150.000 m
   Surface roughness length                         =    0.030 m

   Nyquist frequency of turbulent wind field        =   10.000 Hz

   Number of time steps in the FFT                  =    13200
   Number of time steps output                      =    13200
   Number of points simulated                       =      147


Mean Flow Angles:

   Vertical   =   0.0 degrees
   Horizontal =   0.0 degrees

Mean Wind Speed Profile:

   Height    Wind Speed   Horizontal Angle  Vertical Angle  U-comp (X)   V-comp (Y)   W-comp (Z)
     (m)        (m/s)         (degrees)       (degrees)       (m/s)        (m/s)        (m/s)   
   ------    ----------   ----------------  --------------  ----------   ----------   ----------
    165.0       10.16            0.00            0.00         10.16         0.00         0.00
    151.4        9.99            0.00            0.00          9.99         0.00         0.00
    137.7        9.80            0.00            0.00          9.80         0.00         0.00
    124.1        9.60            0.00            0.00          9.60         0.00         0.00
    110.5        9.38            0.00            0.00          9.38         0.00         0.00
     96.8        9.13            0.00            0.00          9.13         0.00         0.00
     90.0        9.00            0.00            0.00          9.00         0.00         0.00
     83.2        8.86            0.00            0.00          8.86         0.00         0.00
     69.5        8.55            0.00            0.00          8.55         0.00         0.00
     55.9        8.18            0.00            0.00          8.18         0.00         0.00
     42.3        7.74            0.00            0.00          7.74         0.00         0.00
     28.6        7.16            0.00            0.00          7.16         0.00         0.00
     15.0        6.29            0.00            0.00          6.29         0.00         0.00
      1.4        3.89            0.00            0.00          3.89         0.00         0.00


Harvested Random Seeds after Generation of the Random Numbers:

     27044325 K 1
            0 K 2


Scaling statistics from the hub grid point:

  Component  Target Sigma (m/s)  Simulated Sigma (m/s)  Scaling Factor
  ---------  ------------------  ---------------------  --------------
     u'             0.720                0.636                1.132
     v'             0.576                0.562                1.025
     w'             0.360                0.353                1.021


Hub-Height Simulated Turbulence Statistical Summary:

   Type of Wind        Min (m/s)   Mean (m/s)    Max (m/s)  Sigma (m/s)       TI (%)
   ----------------    ---------   ----------    ---------  -----------       ------
   Longitudinal (u)         6.77         9.00        10.94        0.720        8.000
   Lateral (v)             -1.98        -0.00         1.96        0.576        6.400
   Vertical (w)            -1.22        -0.00         1.34        0.360        4.000
   U component              6.77         9.00        10.94        0.720        8.000
   V component             -1.98        -0.00         1.96        0.576        6.400
   W component             -1.22        -0.00         1.34        0.360        4.000
   Horizontal (U&V)         6.80         9.02        10.94        0.724        8.025
   Total                    6.81         9.03        10.94        0.723        8.015

                       Min Reynolds     Mean Reynolds    Max Reynolds    Correlation
   Product             Stress (m/s)^2   Stress (m/s)^2   Stress (m/s)^2  Coefficient
   ----------------    --------------   --------------   --------------  -----------
   u'w'                     -1.535             0.013             1.649         0.051
   u'v'                     -2.269            -0.072             1.852        -0.173
   v'w'                     -1.562            -0.010             1.090        -0.050


   Friction Velocity (Ustar)  =      0.114 m/s
   Maximum Instantaneous TKE  =      2.752 (m/s)^2
   Maximum Instantaneous CTKE =      1.294 (m/s)^2


Grid Point Variance Summary:

   Y-coord  -75.00  -61.36  -47.73  -34.09  -20.45   -6.82    6.82   20.45   34.09   47.73   61.36   75.00

   Height   Standard deviation at grid points for the u component:
   165.00    0.720   0.720   0.720   0.720   0.720   0.720   0.720   0.720   0.720   0.720   0.720   0.720
   151.36    0.720   0.720   0.720   0.720   0.720   0.720   0.720   0.720   0.720   0.720   0.720   0.720
   137.73    0.720   0.720   0.720   0.720   0.720   0.720   0.720   0.720   0.720   0.720   0.720   0.720
   124.09    0.720   0.720   0.720   0.720   0.720   0.720   0.720   0.720   0.720   0.720   0.720   0.720
   110.45    0.720   0.720   0.720   0.720   0.720   0.720   0.720   0.720   0.720   0.720   0.720   0.720
    96.82    0.720   0.720   0.720   0.720   0.720   0.720   0.720   0.720   0.720   0.720   0.720   0.720
    83.18    0.720   0.720   0.720   0.720   0.720   0.720   0.720   0.720   0.720   0.720   0.720   0.720
    69.55    0.720   0.720   0.720   0.720   0.720   0.720   0.720   0.720   0.720   0.720   0.720   0.720
    55.91    0.720   0.720   0.720   0.720   0.720   0.720   0.720   0.720   0.720   0.720   0.720   0.720
    42.27    0.720   0.720   0.720   0.720   0.720   0.720   0.720   0.720   0.720   0.720   0.720   0.720
    28.64    0.720   0.720   0.720   0.720   0.720   0.720   0.720   0.720   0.720   0.720   0.720   0.720
    15.00    0.720   0.720   0.720   0.720   0.720   0.720   0.720   0.720   0.720   0.720   0.720   0.720

   Height   Standard deviation at grid points for the v component:
   165.00    0.576   0.576   0.576   0.576   0.576   0.576   0.576   0.576   0.576   0.576   0.576   0.576
   151.36    0.576   0.576   0.576   0.576   0.576   0.576   0.576   0.576   0.576   0.576   0.576   0.576
   137.73    0.576   0.576   0.576   0.576   0.576   0.576   0.576   0.576   0.576   0.576   0.576   0.576
   124.09    0.576   0.576   0.576   0.576   0.576   0.576   0.576   0.576   0.576   0.576   0.576   0.576
   110.45    0.576   0.576   0.576   0.576   0.576   0.576   0.576   0.576   0.576   0.576   0.576   0.576
    96.82    0.576   0.576   0.576   0.576   0.576   0.576   0.576   0.576   0.576   0.576   0.576   0.576
    83.18    0.576   0.576   0.576   0.576   0.576   0.576   0.576   0.576   0.576   0.576   0.576   0.576
    69.55    0.576   0.576   0.576   0.576   0.576   0.576   0.576   0.576   0.576   0.576   0.576   0.576
    55.91    0.576   0.576   0.576   0.576   0.576   0.576   0.576   0.576   0.576   0.576   0.576   0.576
    42.27    0.576   0.576   0.576   0.576   0.576   0.576   0.576   0.576   0.576   0.576   0.576   0.576
    28.64    0.576   0.576   0.576   0.576   0.576   0.576   0.576   0.576   0.576   0.576   0.576   0.576
    15.00    0.576   0.576   0.576   0.576   0.576   0.576   0.576   0.576   0.576   0.576   0.576   0.576

   Height   Standard deviation at grid points for the w component:
   165.00    0.360   0.360   0.360   0.360   0.360   0.360   0.360   0.360   0.360   0.360   0.360   0.360
   151.36    0.360   0.360   0.360   0.360   0.360   0.360   0.360   0.360   0.360   0.360   0.360   0.360
   137.73    0.360   0.360   0.360   0.360   0.360   0.360   0.360   0.360   0.360   0.360   0.360   0.360
   124.09    0.360   0.360   0.360   0.360   0.360   0.360   0.360   0.360   0.360   0.360   0.360   0.360
   110.45    0.360   0.360   0.360   0.360   0.360   0.360   0.360   0.360   0.360   0.360   0.360   0.360
    96.82    0.360   0.360   0.360   0.360   0.360   0.360   0.360   0.360   0.360   0.360   0.360   0.360
    83.18    0.360   0.360   0.360   0.360   0.360   0.360   0.360   0.360   0.360   0.360   0.360   0.360
    69.55    0.360   0.360   0.360   0.360   0.360   0.360   0.360   0.360   0.360   0.360   0.360   0.360
    55.91    0.360   0.360   0.360   0.360   0.360   0.360   0.360   0.360   0.360   0.360   0.360   0.360
    42.27    0.360   0.360   0.360   0.360   0.360   0.360   0.360   0.360   0.360   0.360   0.360   0.360
    28.64    0.360   0.360   0.360   0.360   0.360   0.360   0.360   0.360   0.360   0.360   0.360   0.360
    15.00    0.360   0.360   0.360   0.360   0.360   0.360   0.360   0.360   0.360   0.360   0.360   0.360

   Mean standard deviation across all grid points:
      u component:    0.720 m/s
      v component:    0.576 m/s
      w component:    0.360 m/s


U-component (X) statistics from the interpolated hub point:

   Mean =   8.9959 m/s
   TI   =   6.7347 %


Processing complete.  1.0781 CPU seconds used.
