
This summary file was generated by TurbSim (from OpenFAST-v3.5.4) on 21-Aug-2025 at 17:33:50.


Runtime Options:

     13431  Random seed #1
    RANLUX  Type of random number generator
         F  Output binary HH turbulence parameters?
         F  Output formatted turbulence parameters?
         F  Output AeroDyn HH files?
         T  Output AeroDyn FF files?
         F  Output BLADED FF files?
         T  Output tower data?
         F  Output HAWC FF files?
         F  Output formatted FF files?
         T  Output coherent turbulence time step file?
 2 -   ALL  IEC turbulence models scaled to exact specified standard deviation


Turbine/Model Specifications:

        12  Vertical grid-point matrix dimension
        12  Horizontal grid-point matrix dimension
     0.050  Time step [seconds]
   660.000  Analysis time [seconds]
   660.000  Usable output time [seconds]
   110.000  Hub height [m]
   150.000  Grid height [m]
   150.000  Grid width [m]
     0.000  Vertical flow angle [degrees]
     0.000  Horizontal flow angle [degrees]


Meteorological Boundary Conditions:

    IECKAI  IEC Kaimal spectral model
         1  IEC standard: IEC 61400-1 Ed. 3: 2005
    10.000  Percent turbulence intensity, IEC 61400-1 Ed. 3: 2005
       NTM  IEC Normal Turbulence Model
       N/A  IEC Extreme Turbulence Model (ETM) "c" parameter [m/s]
       PL   Wind profile type
   110.000  Reference height [m]
     9.000  Reference wind speed [m/s]
       N/A  Jet height [m]
     0.200  Power law exponent
     0.030  Surface roughness length [m]


Non-IEC Meteorological Boundary Conditions:

       N/A  Site latitude [degrees]
       N/A  Gradient Richardson number
       N/A  Friction or shear velocity [m/s]
       N/A  Mixing layer depth [m]
       N/A  Mean hub u'w' Reynolds stress
       N/A  Mean hub u'v' Reynolds stress
       N/A  Mean hub v'w' Reynolds stress


Spatial Coherence Models:

       IEC  u-component coherence model
      NONE  v-component coherence model
      NONE  w-component coherence model
(   12.000, 0.353E-03)  u-component coherence parameters
                   N/A  v-component coherence parameters
                   N/A  w-component coherence parameters
       N/A  Coherence exponent


You have requested that the following file(s) be generated:

   IEAonshore_9mps_TI10.bts (AeroDyn/TurbSim full-field wind file)


Turbulence Simulation Scaling Parameter Summary:

   Turbulence model used                            =  IEC Kaimal
   Turbulence characteristic                        =  User-specified
   IEC standard                                     =  IEC 61400-1 Ed. 3: 2005
   Mean wind speed at hub height                    =    9.000 m/s
   Characteristic value of standard deviation       =    0.900 m/s
   Turbulence scale                                 =   42.000 m
   u-component integral scale                       =  340.200 m
   Coherency scale                                  =  340.200 m
   Characteristic value of hub turbulence intensity =   10.000%
   Gradient Richardson number                       =    0.000

   Wind profile type                                =  Power law
   Power law exponent                               =    0.200
   Mean shear across rotor disk                     =    0.019 (m/s)/m
   Assumed rotor diameter                           =  150.000 m
   Surface roughness length                         =    0.030 m

   Nyquist frequency of turbulent wind field        =   10.000 Hz

   Number of time steps in the FFT                  =    13200
   Number of time steps output                      =    13200
   Number of points simulated                       =      148


Mean Flow Angles:

   Vertical   =   0.0 degrees
   Horizontal =   0.0 degrees

Mean Wind Speed Profile:

   Height    Wind Speed   Horizontal Angle  Vertical Angle  U-comp (X)   V-comp (Y)   W-comp (Z)
     (m)        (m/s)         (degrees)       (degrees)       (m/s)        (m/s)        (m/s)   
   ------    ----------   ----------------  --------------  ----------   ----------   ----------
    185.0        9.99            0.00            0.00          9.99         0.00         0.00
    171.4        9.83            0.00            0.00          9.83         0.00         0.00
    157.7        9.67            0.00            0.00          9.67         0.00         0.00
    144.1        9.50            0.00            0.00          9.50         0.00         0.00
    130.5        9.31            0.00            0.00          9.31         0.00         0.00
    116.8        9.11            0.00            0.00          9.11         0.00         0.00
    110.0        9.00            0.00            0.00          9.00         0.00         0.00
    103.2        8.89            0.00            0.00          8.89         0.00         0.00
     89.5        8.64            0.00            0.00          8.64         0.00         0.00
     75.9        8.36            0.00            0.00          8.36         0.00         0.00
     62.3        8.03            0.00            0.00          8.03         0.00         0.00
     48.6        7.64            0.00            0.00          7.64         0.00         0.00
     35.0        7.16            0.00            0.00          7.16         0.00         0.00
     21.4        6.48            0.00            0.00          6.48         0.00         0.00
      7.7        5.29            0.00            0.00          5.29         0.00         0.00


Harvested Random Seeds after Generation of the Random Numbers:

     27228300 K 1
            0 K 2


Scaling statistics from the hub grid point:

  Component  Target Sigma (m/s)  Simulated Sigma (m/s)  Scaling Factor
  ---------  ------------------  ---------------------  --------------
     u'             0.900                0.801                1.123
     v'             0.720                0.702                1.025
     w'             0.450                0.441                1.021


Hub-Height Simulated Turbulence Statistical Summary:

   Type of Wind        Min (m/s)   Mean (m/s)    Max (m/s)  Sigma (m/s)       TI (%)
   ----------------    ---------   ----------    ---------  -----------       ------
   Longitudinal (u)         6.24         9.00        11.82        0.900       10.000
   Lateral (v)             -2.35         0.00         2.03        0.720        8.000
   Vertical (w)            -1.70         0.00         1.66        0.450        5.000
   U component              6.24         9.00        11.82        0.900       10.000
   V component             -2.35         0.00         2.03        0.720        8.000
   W component             -1.70         0.00         1.66        0.450        5.000
   Horizontal (U&V)         6.43         9.03        11.84        0.899        9.955
   Total                    6.43         9.04        11.85        0.899        9.942

                       Min Reynolds     Mean Reynolds    Max Reynolds    Correlation
   Product             Stress (m/s)^2   Stress (m/s)^2   Stress (m/s)^2  Coefficient
   ----------------    --------------   --------------   --------------  -----------
   u'w'                     -2.452            -0.017             2.379        -0.042
   u'v'                     -3.561             0.051             4.754         0.078
   v'w'                     -2.103            -0.009             1.679        -0.026


   Friction Velocity (Ustar)  =      0.131 m/s
   Maximum Instantaneous TKE  =      4.994 (m/s)^2
   Maximum Instantaneous CTKE =      2.387 (m/s)^2


Grid Point Variance Summary:

   Y-coord  -75.00  -61.36  -47.73  -34.09  -20.45   -6.82    6.82   20.45   34.09   47.73   61.36   75.00

   Height   Standard deviation at grid points for the u component:
   185.00    0.900   0.900   0.900   0.900   0.900   0.900   0.900   0.900   0.900   0.900   0.900   0.900
   171.36    0.900   0.900   0.900   0.900   0.900   0.900   0.900   0.900   0.900   0.900   0.900   0.900
   157.73    0.900   0.900   0.900   0.900   0.900   0.900   0.900   0.900   0.900   0.900   0.900   0.900
   144.09    0.900   0.900   0.900   0.900   0.900   0.900   0.900   0.900   0.900   0.900   0.900   0.900
   130.45    0.900   0.900   0.900   0.900   0.900   0.900   0.900   0.900   0.900   0.900   0.900   0.900
   116.82    0.900   0.900   0.900   0.900   0.900   0.900   0.900   0.900   0.900   0.900   0.900   0.900
   103.18    0.900   0.900   0.900   0.900   0.900   0.900   0.900   0.900   0.900   0.900   0.900   0.900
    89.55    0.900   0.900   0.900   0.900   0.900   0.900   0.900   0.900   0.900   0.900   0.900   0.900
    75.91    0.900   0.900   0.900   0.900   0.900   0.900   0.900   0.900   0.900   0.900   0.900   0.900
    62.27    0.900   0.900   0.900   0.900   0.900   0.900   0.900   0.900   0.900   0.900   0.900   0.900
    48.64    0.900   0.900   0.900   0.900   0.900   0.900   0.900   0.900   0.900   0.900   0.900   0.900
    35.00    0.900   0.900   0.900   0.900   0.900   0.900   0.900   0.900   0.900   0.900   0.900   0.900

   Height   Standard deviation at grid points for the v component:
   185.00    0.720   0.720   0.720   0.720   0.720   0.720   0.720   0.720   0.720   0.720   0.720   0.720
   171.36    0.720   0.720   0.720   0.720   0.720   0.720   0.720   0.720   0.720   0.720   0.720   0.720
   157.73    0.720   0.720   0.720   0.720   0.720   0.720   0.720   0.720   0.720   0.720   0.720   0.720
   144.09    0.720   0.720   0.720   0.720   0.720   0.720   0.720   0.720   0.720   0.720   0.720   0.720
   130.45    0.720   0.720   0.720   0.720   0.720   0.720   0.720   0.720   0.720   0.720   0.720   0.720
   116.82    0.720   0.720   0.720   0.720   0.720   0.720   0.720   0.720   0.720   0.720   0.720   0.720
   103.18    0.720   0.720   0.720   0.720   0.720   0.720   0.720   0.720   0.720   0.720   0.720   0.720
    89.55    0.720   0.720   0.720   0.720   0.720   0.720   0.720   0.720   0.720   0.720   0.720   0.720
    75.91    0.720   0.720   0.720   0.720   0.720   0.720   0.720   0.720   0.720   0.720   0.720   0.720
    62.27    0.720   0.720   0.720   0.720   0.720   0.720   0.720   0.720   0.720   0.720   0.720   0.720
    48.64    0.720   0.720   0.720   0.720   0.720   0.720   0.720   0.720   0.720   0.720   0.720   0.720
    35.00    0.720   0.720   0.720   0.720   0.720   0.720   0.720   0.720   0.720   0.720   0.720   0.720

   Height   Standard deviation at grid points for the w component:
   185.00    0.450   0.450   0.450   0.450   0.450   0.450   0.450   0.450   0.450   0.450   0.450   0.450
   171.36    0.450   0.450   0.450   0.450   0.450   0.450   0.450   0.450   0.450   0.450   0.450   0.450
   157.73    0.450   0.450   0.450   0.450   0.450   0.450   0.450   0.450   0.450   0.450   0.450   0.450
   144.09    0.450   0.450   0.450   0.450   0.450   0.450   0.450   0.450   0.450   0.450   0.450   0.450
   130.45    0.450   0.450   0.450   0.450   0.450   0.450   0.450   0.450   0.450   0.450   0.450   0.450
   116.82    0.450   0.450   0.450   0.450   0.450   0.450   0.450   0.450   0.450   0.450   0.450   0.450
   103.18    0.450   0.450   0.450   0.450   0.450   0.450   0.450   0.450   0.450   0.450   0.450   0.450
    89.55    0.450   0.450   0.450   0.450   0.450   0.450   0.450   0.450   0.450   0.450   0.450   0.450
    75.91    0.450   0.450   0.450   0.450   0.450   0.450   0.450   0.450   0.450   0.450   0.450   0.450
    62.27    0.450   0.450   0.450   0.450   0.450   0.450   0.450   0.450   0.450   0.450   0.450   0.450
    48.64    0.450   0.450   0.450   0.450   0.450   0.450   0.450   0.450   0.450   0.450   0.450   0.450
    35.00    0.450   0.450   0.450   0.450   0.450   0.450   0.450   0.450   0.450   0.450   0.450   0.450

   Mean standard deviation across all grid points:
      u component:    0.900 m/s
      v component:    0.720 m/s
      w component:    0.450 m/s


U-component (X) statistics from the interpolated hub point:

   Mean =   8.9972 m/s
   TI   =   8.4713 %


Processing complete.  0.60938 CPU seconds used.
