
This summary file was generated by TurbSim (from OpenFAST-v3.5.4) on 21-Aug-2025 at 08:38:25.


Runtime Options:

     13431  Random seed #1
    RANLUX  Type of random number generator
         F  Output binary HH turbulence parameters?
         F  Output formatted turbulence parameters?
         F  Output AeroDyn HH files?
         T  Output AeroDyn FF files?
         F  Output BLADED FF files?
         T  Output tower data?
         F  Output HAWC FF files?
         F  Output formatted FF files?
         T  Output coherent turbulence time step file?
 2 -   ALL  IEC turbulence models scaled to exact specified standard deviation


Turbine/Model Specifications:

        12  Vertical grid-point matrix dimension
        12  Horizontal grid-point matrix dimension
     0.050  Time step [seconds]
   660.000  Analysis time [seconds]
   660.000  Usable output time [seconds]
   110.000  Hub height [m]
   150.000  Grid height [m]
   150.000  Grid width [m]
     0.000  Vertical flow angle [degrees]
     0.000  Horizontal flow angle [degrees]


Meteorological Boundary Conditions:

    IECKAI  IEC Kaimal spectral model
         1  IEC standard: IEC 61400-1 Ed. 3: 2005
    10.000  Percent turbulence intensity, IEC 61400-1 Ed. 3: 2005
       NTM  IEC Normal Turbulence Model
       N/A  IEC Extreme Turbulence Model (ETM) "c" parameter [m/s]
       PL   Wind profile type
   110.000  Reference height [m]
     8.000  Reference wind speed [m/s]
       N/A  Jet height [m]
     0.200  Power law exponent
     0.030  Surface roughness length [m]


Non-IEC Meteorological Boundary Conditions:

       N/A  Site latitude [degrees]
       N/A  Gradient Richardson number
       N/A  Friction or shear velocity [m/s]
       N/A  Mixing layer depth [m]
       N/A  Mean hub u'w' Reynolds stress
       N/A  Mean hub u'v' Reynolds stress
       N/A  Mean hub v'w' Reynolds stress


Spatial Coherence Models:

       IEC  u-component coherence model
      NONE  v-component coherence model
      NONE  w-component coherence model
(   12.000, 0.353E-03)  u-component coherence parameters
                   N/A  v-component coherence parameters
                   N/A  w-component coherence parameters
       N/A  Coherence exponent


You have requested that the following file(s) be generated:

   IEAonshore_8mps_TI10.bts (AeroDyn/TurbSim full-field wind file)


Turbulence Simulation Scaling Parameter Summary:

   Turbulence model used                            =  IEC Kaimal
   Turbulence characteristic                        =  User-specified
   IEC standard                                     =  IEC 61400-1 Ed. 3: 2005
   Mean wind speed at hub height                    =    8.000 m/s
   Characteristic value of standard deviation       =    0.800 m/s
   Turbulence scale                                 =   42.000 m
   u-component integral scale                       =  340.200 m
   Coherency scale                                  =  340.200 m
   Characteristic value of hub turbulence intensity =   10.000%
   Gradient Richardson number                       =    0.000

   Wind profile type                                =  Power law
   Power law exponent                               =    0.200
   Mean shear across rotor disk                     =    0.017 (m/s)/m
   Assumed rotor diameter                           =  150.000 m
   Surface roughness length                         =    0.030 m

   Nyquist frequency of turbulent wind field        =   10.000 Hz

   Number of time steps in the FFT                  =    13200
   Number of time steps output                      =    13200
   Number of points simulated                       =      148


Mean Flow Angles:

   Vertical   =   0.0 degrees
   Horizontal =   0.0 degrees

Mean Wind Speed Profile:

   Height    Wind Speed   Horizontal Angle  Vertical Angle  U-comp (X)   V-comp (Y)   W-comp (Z)
     (m)        (m/s)         (degrees)       (degrees)       (m/s)        (m/s)        (m/s)   
   ------    ----------   ----------------  --------------  ----------   ----------   ----------
    185.0        8.88            0.00            0.00          8.88         0.00         0.00
    171.4        8.74            0.00            0.00          8.74         0.00         0.00
    157.7        8.60            0.00            0.00          8.60         0.00         0.00
    144.1        8.44            0.00            0.00          8.44         0.00         0.00
    130.5        8.28            0.00            0.00          8.28         0.00         0.00
    116.8        8.10            0.00            0.00          8.10         0.00         0.00
    110.0        8.00            0.00            0.00          8.00         0.00         0.00
    103.2        7.90            0.00            0.00          7.90         0.00         0.00
     89.5        7.68            0.00            0.00          7.68         0.00         0.00
     75.9        7.43            0.00            0.00          7.43         0.00         0.00
     62.3        7.14            0.00            0.00          7.14         0.00         0.00
     48.6        6.80            0.00            0.00          6.80         0.00         0.00
     35.0        6.36            0.00            0.00          6.36         0.00         0.00
     21.4        5.76            0.00            0.00          5.76         0.00         0.00
      7.7        4.70            0.00            0.00          4.70         0.00         0.00


Harvested Random Seeds after Generation of the Random Numbers:

     27228300 K 1
            0 K 2


Scaling statistics from the hub grid point:

  Component  Target Sigma (m/s)  Simulated Sigma (m/s)  Scaling Factor
  ---------  ------------------  ---------------------  --------------
     u'             0.800                0.702                1.139
     v'             0.640                0.623                1.027
     w'             0.400                0.392                1.020


Hub-Height Simulated Turbulence Statistical Summary:

   Type of Wind        Min (m/s)   Mean (m/s)    Max (m/s)  Sigma (m/s)       TI (%)
   ----------------    ---------   ----------    ---------  -----------       ------
   Longitudinal (u)         5.52         8.00        10.42        0.800       10.000
   Lateral (v)             -2.08         0.00         1.79        0.640        8.000
   Vertical (w)            -1.52         0.00         1.47        0.400        5.000
   U component              5.52         8.00        10.42        0.800       10.000
   V component             -2.08         0.00         1.79        0.640        8.000
   W component             -1.52         0.00         1.47        0.400        5.000
   Horizontal (U&V)         5.69         8.03        10.44        0.799        9.954
   Total                    5.69         8.04        10.45        0.799        9.940

                       Min Reynolds     Mean Reynolds    Max Reynolds    Correlation
   Product             Stress (m/s)^2   Stress (m/s)^2   Stress (m/s)^2  Coefficient
   ----------------    --------------   --------------   --------------  -----------
   u'w'                     -1.867            -0.013             1.859        -0.040
   u'v'                     -2.725             0.040             3.771         0.078
   v'w'                     -1.650            -0.006             1.302        -0.023


   Friction Velocity (Ustar)  =      0.112 m/s
   Maximum Instantaneous TKE  =      4.001 (m/s)^2
   Maximum Instantaneous CTKE =      1.895 (m/s)^2


Grid Point Variance Summary:

   Y-coord  -75.00  -61.36  -47.73  -34.09  -20.45   -6.82    6.82   20.45   34.09   47.73   61.36   75.00

   Height   Standard deviation at grid points for the u component:
   185.00    0.800   0.800   0.800   0.800   0.800   0.800   0.800   0.800   0.800   0.800   0.800   0.800
   171.36    0.800   0.800   0.800   0.800   0.800   0.800   0.800   0.800   0.800   0.800   0.800   0.800
   157.73    0.800   0.800   0.800   0.800   0.800   0.800   0.800   0.800   0.800   0.800   0.800   0.800
   144.09    0.800   0.800   0.800   0.800   0.800   0.800   0.800   0.800   0.800   0.800   0.800   0.800
   130.45    0.800   0.800   0.800   0.800   0.800   0.800   0.800   0.800   0.800   0.800   0.800   0.800
   116.82    0.800   0.800   0.800   0.800   0.800   0.800   0.800   0.800   0.800   0.800   0.800   0.800
   103.18    0.800   0.800   0.800   0.800   0.800   0.800   0.800   0.800   0.800   0.800   0.800   0.800
    89.55    0.800   0.800   0.800   0.800   0.800   0.800   0.800   0.800   0.800   0.800   0.800   0.800
    75.91    0.800   0.800   0.800   0.800   0.800   0.800   0.800   0.800   0.800   0.800   0.800   0.800
    62.27    0.800   0.800   0.800   0.800   0.800   0.800   0.800   0.800   0.800   0.800   0.800   0.800
    48.64    0.800   0.800   0.800   0.800   0.800   0.800   0.800   0.800   0.800   0.800   0.800   0.800
    35.00    0.800   0.800   0.800   0.800   0.800   0.800   0.800   0.800   0.800   0.800   0.800   0.800

   Height   Standard deviation at grid points for the v component:
   185.00    0.640   0.640   0.640   0.640   0.640   0.640   0.640   0.640   0.640   0.640   0.640   0.640
   171.36    0.640   0.640   0.640   0.640   0.640   0.640   0.640   0.640   0.640   0.640   0.640   0.640
   157.73    0.640   0.640   0.640   0.640   0.640   0.640   0.640   0.640   0.640   0.640   0.640   0.640
   144.09    0.640   0.640   0.640   0.640   0.640   0.640   0.640   0.640   0.640   0.640   0.640   0.640
   130.45    0.640   0.640   0.640   0.640   0.640   0.640   0.640   0.640   0.640   0.640   0.640   0.640
   116.82    0.640   0.640   0.640   0.640   0.640   0.640   0.640   0.640   0.640   0.640   0.640   0.640
   103.18    0.640   0.640   0.640   0.640   0.640   0.640   0.640   0.640   0.640   0.640   0.640   0.640
    89.55    0.640   0.640   0.640   0.640   0.640   0.640   0.640   0.640   0.640   0.640   0.640   0.640
    75.91    0.640   0.640   0.640   0.640   0.640   0.640   0.640   0.640   0.640   0.640   0.640   0.640
    62.27    0.640   0.640   0.640   0.640   0.640   0.640   0.640   0.640   0.640   0.640   0.640   0.640
    48.64    0.640   0.640   0.640   0.640   0.640   0.640   0.640   0.640   0.640   0.640   0.640   0.640
    35.00    0.640   0.640   0.640   0.640   0.640   0.640   0.640   0.640   0.640   0.640   0.640   0.640

   Height   Standard deviation at grid points for the w component:
   185.00    0.400   0.400   0.400   0.400   0.400   0.400   0.400   0.400   0.400   0.400   0.400   0.400
   171.36    0.400   0.400   0.400   0.400   0.400   0.400   0.400   0.400   0.400   0.400   0.400   0.400
   157.73    0.400   0.400   0.400   0.400   0.400   0.400   0.400   0.400   0.400   0.400   0.400   0.400
   144.09    0.400   0.400   0.400   0.400   0.400   0.400   0.400   0.400   0.400   0.400   0.400   0.400
   130.45    0.400   0.400   0.400   0.400   0.400   0.400   0.400   0.400   0.400   0.400   0.400   0.400
   116.82    0.400   0.400   0.400   0.400   0.400   0.400   0.400   0.400   0.400   0.400   0.400   0.400
   103.18    0.400   0.400   0.400   0.400   0.400   0.400   0.400   0.400   0.400   0.400   0.400   0.400
    89.55    0.400   0.400   0.400   0.400   0.400   0.400   0.400   0.400   0.400   0.400   0.400   0.400
    75.91    0.400   0.400   0.400   0.400   0.400   0.400   0.400   0.400   0.400   0.400   0.400   0.400
    62.27    0.400   0.400   0.400   0.400   0.400   0.400   0.400   0.400   0.400   0.400   0.400   0.400
    48.64    0.400   0.400   0.400   0.400   0.400   0.400   0.400   0.400   0.400   0.400   0.400   0.400
    35.00    0.400   0.400   0.400   0.400   0.400   0.400   0.400   0.400   0.400   0.400   0.400   0.400

   Mean standard deviation across all grid points:
      u component:    0.800 m/s
      v component:    0.640 m/s
      w component:    0.400 m/s


U-component (X) statistics from the interpolated hub point:

   Mean =   7.9975 m/s
   TI   =   8.4148 %


Processing complete.  0.98438 CPU seconds used.
