
This summary file was generated by TurbSim (from OpenFAST-v3.5.4) on 27-Aug-2025 at 16:33:06.


Runtime Options:

     13426  Random seed #1
    RANLUX  Type of random number generator
         F  Output binary HH turbulence parameters?
         F  Output formatted turbulence parameters?
         F  Output AeroDyn HH files?
         T  Output AeroDyn FF files?
         F  Output BLADED FF files?
         T  Output tower data?
         F  Output HAWC FF files?
         F  Output formatted FF files?
         F  Output coherent turbulence time step file?
 2 -   ALL  IEC turbulence models scaled to exact specified standard deviation


Turbine/Model Specifications:

        31  Vertical grid-point matrix dimension
        31  Horizontal grid-point matrix dimension
     0.050  Time step [seconds]
   660.000  Analysis time [seconds]
   660.000  Usable output time [seconds]
    90.000  Hub height [m]
   145.000  Grid height [m]
   145.000  Grid width [m]
     0.000  Vertical flow angle [degrees]
     0.000  Horizontal flow angle [degrees]


Meteorological Boundary Conditions:

    IECKAI  IEC Kaimal spectral model
         1  IEC standard: IEC 61400-1 Ed. 3: 2005
     8.000  Percent turbulence intensity, IEC 61400-1 Ed. 3: 2005
       NTM  IEC Normal Turbulence Model
       N/A  IEC Extreme Turbulence Model (ETM) "c" parameter [m/s]
       PL   Wind profile type
    90.000  Reference height [m]
     9.000  Reference wind speed [m/s]
       N/A  Jet height [m]
     0.200  Power law exponent
     0.030  Surface roughness length [m]


Non-IEC Meteorological Boundary Conditions:

       N/A  Site latitude [degrees]
       N/A  Gradient Richardson number
       N/A  Friction or shear velocity [m/s]
       N/A  Mixing layer depth [m]
       N/A  Mean hub u'w' Reynolds stress
       N/A  Mean hub u'v' Reynolds stress
       N/A  Mean hub v'w' Reynolds stress


Spatial Coherence Models:

       IEC  u-component coherence model
      NONE  v-component coherence model
      NONE  w-component coherence model
(   12.000, 0.353E-03)  u-component coherence parameters
                   N/A  v-component coherence parameters
                   N/A  w-component coherence parameters
       N/A  Coherence exponent


You have requested that the following file(s) be generated:

   SPW/v9/TI8.0/sd0/NREL5MW_9_sh0.2_TI8.0_sd0.bts (AeroDyn/TurbSim full-field wind file)


Turbulence Simulation Scaling Parameter Summary:

   Turbulence model used                            =  IEC Kaimal
   Turbulence characteristic                        =  User-specified
   IEC standard                                     =  IEC 61400-1 Ed. 3: 2005
   Mean wind speed at hub height                    =    9.000 m/s
   Characteristic value of standard deviation       =    0.720 m/s
   Turbulence scale                                 =   42.000 m
   u-component integral scale                       =  340.200 m
   Coherency scale                                  =  340.200 m
   Characteristic value of hub turbulence intensity =    8.000%
   Gradient Richardson number                       =    0.000

   Wind profile type                                =  Power law
   Power law exponent                               =    0.200
   Mean shear across rotor disk                     =    0.025 (m/s)/m
   Assumed rotor diameter                           =  145.000 m
   Surface roughness length                         =    0.030 m

   Nyquist frequency of turbulent wind field        =   10.000 Hz

   Number of time steps in the FFT                  =    13200
   Number of time steps output                      =    13200
   Number of points simulated                       =      964


Mean Flow Angles:

   Vertical   =   0.0 degrees
   Horizontal =   0.0 degrees

Mean Wind Speed Profile:

   Height    Wind Speed   Horizontal Angle  Vertical Angle  U-comp (X)   V-comp (Y)   W-comp (Z)
     (m)        (m/s)         (degrees)       (degrees)       (m/s)        (m/s)        (m/s)   
   ------    ----------   ----------------  --------------  ----------   ----------   ----------
    162.5       10.13            0.00            0.00         10.13         0.00         0.00
    157.7       10.07            0.00            0.00         10.07         0.00         0.00
    152.8       10.01            0.00            0.00         10.01         0.00         0.00
    148.0        9.94            0.00            0.00          9.94         0.00         0.00
    143.2        9.88            0.00            0.00          9.88         0.00         0.00
    138.3        9.81            0.00            0.00          9.81         0.00         0.00
    133.5        9.74            0.00            0.00          9.74         0.00         0.00
    128.7        9.67            0.00            0.00          9.67         0.00         0.00
    123.8        9.59            0.00            0.00          9.59         0.00         0.00
    119.0        9.52            0.00            0.00          9.52         0.00         0.00
    114.2        9.44            0.00            0.00          9.44         0.00         0.00
    109.3        9.36            0.00            0.00          9.36         0.00         0.00
    104.5        9.27            0.00            0.00          9.27         0.00         0.00
     99.7        9.19            0.00            0.00          9.19         0.00         0.00
     94.8        9.09            0.00            0.00          9.09         0.00         0.00
     90.0        9.00            0.00            0.00          9.00         0.00         0.00
     85.2        8.90            0.00            0.00          8.90         0.00         0.00
     80.3        8.80            0.00            0.00          8.80         0.00         0.00
     75.5        8.69            0.00            0.00          8.69         0.00         0.00
     70.7        8.58            0.00            0.00          8.58         0.00         0.00
     65.8        8.45            0.00            0.00          8.45         0.00         0.00
     61.0        8.33            0.00            0.00          8.33         0.00         0.00
     56.2        8.19            0.00            0.00          8.19         0.00         0.00
     51.3        8.04            0.00            0.00          8.04         0.00         0.00
     46.5        7.89            0.00            0.00          7.89         0.00         0.00
     41.7        7.72            0.00            0.00          7.72         0.00         0.00
     36.8        7.53            0.00            0.00          7.53         0.00         0.00
     32.0        7.32            0.00            0.00          7.32         0.00         0.00
     27.2        7.08            0.00            0.00          7.08         0.00         0.00
     22.3        6.81            0.00            0.00          6.81         0.00         0.00
     17.5        6.49            0.00            0.00          6.49         0.00         0.00
     12.7        6.08            0.00            0.00          6.08         0.00         0.00
      7.8        5.52            0.00            0.00          5.52         0.00         0.00
      3.0        4.56            0.00            0.00          4.56         0.00         0.00


Harvested Random Seeds after Generation of the Random Numbers:

    177351900 K 1
            0 K 2


Scaling statistics from the hub grid point:

  Component  Target Sigma (m/s)  Simulated Sigma (m/s)  Scaling Factor
  ---------  ------------------  ---------------------  --------------
     u'             0.720                0.706                1.020
     v'             0.576                0.562                1.025
     w'             0.360                0.353                1.021


Hub-Height Simulated Turbulence Statistical Summary:

   Type of Wind        Min (m/s)   Mean (m/s)    Max (m/s)  Sigma (m/s)       TI (%)
   ----------------    ---------   ----------    ---------  -----------       ------
   Longitudinal (u)         7.04         9.00        11.27        0.720        8.000
   Lateral (v)             -2.02         0.00         2.22        0.576        6.400
   Vertical (w)            -1.46         0.00         1.23        0.360        4.000
   U component              7.04         9.00        11.27        0.720        8.000
   V component             -2.02         0.00         2.22        0.576        6.400
   W component             -1.46         0.00         1.23        0.360        4.000
   Horizontal (U&V)         7.07         9.02        11.27        0.716        7.938
   Total                    7.07         9.03        11.28        0.716        7.928

                       Min Reynolds     Mean Reynolds    Max Reynolds    Correlation
   Product             Stress (m/s)^2   Stress (m/s)^2   Stress (m/s)^2  Coefficient
   ----------------    --------------   --------------   --------------  -----------
   u'w'                     -1.631             0.005             1.746         0.019
   u'v'                     -2.432            -0.007             2.305        -0.018
   v'w'                     -1.374             0.004             1.361         0.017


   Friction Velocity (Ustar)  =      0.071 m/s
   Maximum Instantaneous TKE  =      3.130 (m/s)^2
   Maximum Instantaneous CTKE =      1.330 (m/s)^2


Grid Point Variance Summary:

   Y-coord  -72.50  -67.67  -62.83  -58.00  -53.17  -48.33  -43.50  -38.67  -33.83  -29.00  -24.17  -19.33  -14.50   -9.67   -4.83    0.00    4.83    9.67   14.50   19.33   24.17   29.00   33.83   38.67   43.50   48.33   53.17   58.00   62.83   67.67   72.50

   Height   Standard deviation at grid points for the u component:
   162.50    0.720   0.720   0.720   0.720   0.720   0.720   0.720   0.720   0.720   0.720   0.720   0.720   0.720   0.720   0.720   0.720   0.720   0.720   0.720   0.720   0.720   0.720   0.720   0.720   0.720   0.720   0.720   0.720   0.720   0.720   0.720
   157.67    0.720   0.720   0.720   0.720   0.720   0.720   0.720   0.720   0.720   0.720   0.720   0.720   0.720   0.720   0.720   0.720   0.720   0.720   0.720   0.720   0.720   0.720   0.720   0.720   0.720   0.720   0.720   0.720   0.720   0.720   0.720
   152.83    0.720   0.720   0.720   0.720   0.720   0.720   0.720   0.720   0.720   0.720   0.720   0.720   0.720   0.720   0.720   0.720   0.720   0.720   0.720   0.720   0.720   0.720   0.720   0.720   0.720   0.720   0.720   0.720   0.720   0.720   0.720
   148.00    0.720   0.720   0.720   0.720   0.720   0.720   0.720   0.720   0.720   0.720   0.720   0.720   0.720   0.720   0.720   0.720   0.720   0.720   0.720   0.720   0.720   0.720   0.720   0.720   0.720   0.720   0.720   0.720   0.720   0.720   0.720
   143.17    0.720   0.720   0.720   0.720   0.720   0.720   0.720   0.720   0.720   0.720   0.720   0.720   0.720   0.720   0.720   0.720   0.720   0.720   0.720   0.720   0.720   0.720   0.720   0.720   0.720   0.720   0.720   0.720   0.720   0.720   0.720
   138.33    0.720   0.720   0.720   0.720   0.720   0.720   0.720   0.720   0.720   0.720   0.720   0.720   0.720   0.720   0.720   0.720   0.720   0.720   0.720   0.720   0.720   0.720   0.720   0.720   0.720   0.720   0.720   0.720   0.720   0.720   0.720
   133.50    0.720   0.720   0.720   0.720   0.720   0.720   0.720   0.720   0.720   0.720   0.720   0.720   0.720   0.720   0.720   0.720   0.720   0.720   0.720   0.720   0.720   0.720   0.720   0.720   0.720   0.720   0.720   0.720   0.720   0.720   0.720
   128.67    0.720   0.720   0.720   0.720   0.720   0.720   0.720   0.720   0.720   0.720   0.720   0.720   0.720   0.720   0.720   0.720   0.720   0.720   0.720   0.720   0.720   0.720   0.720   0.720   0.720   0.720   0.720   0.720   0.720   0.720   0.720
   123.83    0.720   0.720   0.720   0.720   0.720   0.720   0.720   0.720   0.720   0.720   0.720   0.720   0.720   0.720   0.720   0.720   0.720   0.720   0.720   0.720   0.720   0.720   0.720   0.720   0.720   0.720   0.720   0.720   0.720   0.720   0.720
   119.00    0.720   0.720   0.720   0.720   0.720   0.720   0.720   0.720   0.720   0.720   0.720   0.720   0.720   0.720   0.720   0.720   0.720   0.720   0.720   0.720   0.720   0.720   0.720   0.720   0.720   0.720   0.720   0.720   0.720   0.720   0.720
   114.17    0.720   0.720   0.720   0.720   0.720   0.720   0.720   0.720   0.720   0.720   0.720   0.720   0.720   0.720   0.720   0.720   0.720   0.720   0.720   0.720   0.720   0.720   0.720   0.720   0.720   0.720   0.720   0.720   0.720   0.720   0.720
   109.33    0.720   0.720   0.720   0.720   0.720   0.720   0.720   0.720   0.720   0.720   0.720   0.720   0.720   0.720   0.720   0.720   0.720   0.720   0.720   0.720   0.720   0.720   0.720   0.720   0.720   0.720   0.720   0.720   0.720   0.720   0.720
   104.50    0.720   0.720   0.720   0.720   0.720   0.720   0.720   0.720   0.720   0.720   0.720   0.720   0.720   0.720   0.720   0.720   0.720   0.720   0.720   0.720   0.720   0.720   0.720   0.720   0.720   0.720   0.720   0.720   0.720   0.720   0.720
    99.67    0.720   0.720   0.720   0.720   0.720   0.720   0.720   0.720   0.720   0.720   0.720   0.720   0.720   0.720   0.720   0.720   0.720   0.720   0.720   0.720   0.720   0.720   0.720   0.720   0.720   0.720   0.720   0.720   0.720   0.720   0.720
    94.83    0.720   0.720   0.720   0.720   0.720   0.720   0.720   0.720   0.720   0.720   0.720   0.720   0.720   0.720   0.720   0.720   0.720   0.720   0.720   0.720   0.720   0.720   0.720   0.720   0.720   0.720   0.720   0.720   0.720   0.720   0.720
    90.00    0.720   0.720   0.720   0.720   0.720   0.720   0.720   0.720   0.720   0.720   0.720   0.720   0.720   0.720   0.720   0.720   0.720   0.720   0.720   0.720   0.720   0.720   0.720   0.720   0.720   0.720   0.720   0.720   0.720   0.720   0.720
    85.17    0.720   0.720   0.720   0.720   0.720   0.720   0.720   0.720   0.720   0.720   0.720   0.720   0.720   0.720   0.720   0.720   0.720   0.720   0.720   0.720   0.720   0.720   0.720   0.720   0.720   0.720   0.720   0.720   0.720   0.720   0.720
    80.33    0.720   0.720   0.720   0.720   0.720   0.720   0.720   0.720   0.720   0.720   0.720   0.720   0.720   0.720   0.720   0.720   0.720   0.720   0.720   0.720   0.720   0.720   0.720   0.720   0.720   0.720   0.720   0.720   0.720   0.720   0.720
    75.50    0.720   0.720   0.720   0.720   0.720   0.720   0.720   0.720   0.720   0.720   0.720   0.720   0.720   0.720   0.720   0.720   0.720   0.720   0.720   0.720   0.720   0.720   0.720   0.720   0.720   0.720   0.720   0.720   0.720   0.720   0.720
    70.67    0.720   0.720   0.720   0.720   0.720   0.720   0.720   0.720   0.720   0.720   0.720   0.720   0.720   0.720   0.720   0.720   0.720   0.720   0.720   0.720   0.720   0.720   0.720   0.720   0.720   0.720   0.720   0.720   0.720   0.720   0.720
    65.83    0.720   0.720   0.720   0.720   0.720   0.720   0.720   0.720   0.720   0.720   0.720   0.720   0.720   0.720   0.720   0.720   0.720   0.720   0.720   0.720   0.720   0.720   0.720   0.720   0.720   0.720   0.720   0.720   0.720   0.720   0.720
    61.00    0.720   0.720   0.720   0.720   0.720   0.720   0.720   0.720   0.720   0.720   0.720   0.720   0.720   0.720   0.720   0.720   0.720   0.720   0.720   0.720   0.720   0.720   0.720   0.720   0.720   0.720   0.720   0.720   0.720   0.720   0.720
    56.17    0.720   0.720   0.720   0.720   0.720   0.720   0.720   0.720   0.720   0.720   0.720   0.720   0.720   0.720   0.720   0.720   0.720   0.720   0.720   0.720   0.720   0.720   0.720   0.720   0.720   0.720   0.720   0.720   0.720   0.720   0.720
    51.33    0.720   0.720   0.720   0.720   0.720   0.720   0.720   0.720   0.720   0.720   0.720   0.720   0.720   0.720   0.720   0.720   0.720   0.720   0.720   0.720   0.720   0.720   0.720   0.720   0.720   0.720   0.720   0.720   0.720   0.720   0.720
    46.50    0.720   0.720   0.720   0.720   0.720   0.720   0.720   0.720   0.720   0.720   0.720   0.720   0.720   0.720   0.720   0.720   0.720   0.720   0.720   0.720   0.720   0.720   0.720   0.720   0.720   0.720   0.720   0.720   0.720   0.720   0.720
    41.67    0.720   0.720   0.720   0.720   0.720   0.720   0.720   0.720   0.720   0.720   0.720   0.720   0.720   0.720   0.720   0.720   0.720   0.720   0.720   0.720   0.720   0.720   0.720   0.720   0.720   0.720   0.720   0.720   0.720   0.720   0.720
    36.83    0.720   0.720   0.720   0.720   0.720   0.720   0.720   0.720   0.720   0.720   0.720   0.720   0.720   0.720   0.720   0.720   0.720   0.720   0.720   0.720   0.720   0.720   0.720   0.720   0.720   0.720   0.720   0.720   0.720   0.720   0.720
    32.00    0.720   0.720   0.720   0.720   0.720   0.720   0.720   0.720   0.720   0.720   0.720   0.720   0.720   0.720   0.720   0.720   0.720   0.720   0.720   0.720   0.720   0.720   0.720   0.720   0.720   0.720   0.720   0.720   0.720   0.720   0.720
    27.17    0.720   0.720   0.720   0.720   0.720   0.720   0.720   0.720   0.720   0.720   0.720   0.720   0.720   0.720   0.720   0.720   0.720   0.720   0.720   0.720   0.720   0.720   0.720   0.720   0.720   0.720   0.720   0.720   0.720   0.720   0.720
    22.33    0.720   0.720   0.720   0.720   0.720   0.720   0.720   0.720   0.720   0.720   0.720   0.720   0.720   0.720   0.720   0.720   0.720   0.720   0.720   0.720   0.720   0.720   0.720   0.720   0.720   0.720   0.720   0.720   0.720   0.720   0.720
    17.50    0.720   0.720   0.720   0.720   0.720   0.720   0.720   0.720   0.720   0.720   0.720   0.720   0.720   0.720   0.720   0.720   0.720   0.720   0.720   0.720   0.720   0.720   0.720   0.720   0.720   0.720   0.720   0.720   0.720   0.720   0.720

   Height   Standard deviation at grid points for the v component:
   162.50    0.576   0.576   0.576   0.576   0.576   0.576   0.576   0.576   0.576   0.576   0.576   0.576   0.576   0.576   0.576   0.576   0.576   0.576   0.576   0.576   0.576   0.576   0.576   0.576   0.576   0.576   0.576   0.576   0.576   0.576   0.576
   157.67    0.576   0.576   0.576   0.576   0.576   0.576   0.576   0.576   0.576   0.576   0.576   0.576   0.576   0.576   0.576   0.576   0.576   0.576   0.576   0.576   0.576   0.576   0.576   0.576   0.576   0.576   0.576   0.576   0.576   0.576   0.576
   152.83    0.576   0.576   0.576   0.576   0.576   0.576   0.576   0.576   0.576   0.576   0.576   0.576   0.576   0.576   0.576   0.576   0.576   0.576   0.576   0.576   0.576   0.576   0.576   0.576   0.576   0.576   0.576   0.576   0.576   0.576   0.576
   148.00    0.576   0.576   0.576   0.576   0.576   0.576   0.576   0.576   0.576   0.576   0.576   0.576   0.576   0.576   0.576   0.576   0.576   0.576   0.576   0.576   0.576   0.576   0.576   0.576   0.576   0.576   0.576   0.576   0.576   0.576   0.576
   143.17    0.576   0.576   0.576   0.576   0.576   0.576   0.576   0.576   0.576   0.576   0.576   0.576   0.576   0.576   0.576   0.576   0.576   0.576   0.576   0.576   0.576   0.576   0.576   0.576   0.576   0.576   0.576   0.576   0.576   0.576   0.576
   138.33    0.576   0.576   0.576   0.576   0.576   0.576   0.576   0.576   0.576   0.576   0.576   0.576   0.576   0.576   0.576   0.576   0.576   0.576   0.576   0.576   0.576   0.576   0.576   0.576   0.576   0.576   0.576   0.576   0.576   0.576   0.576
   133.50    0.576   0.576   0.576   0.576   0.576   0.576   0.576   0.576   0.576   0.576   0.576   0.576   0.576   0.576   0.576   0.576   0.576   0.576   0.576   0.576   0.576   0.576   0.576   0.576   0.576   0.576   0.576   0.576   0.576   0.576   0.576
   128.67    0.576   0.576   0.576   0.576   0.576   0.576   0.576   0.576   0.576   0.576   0.576   0.576   0.576   0.576   0.576   0.576   0.576   0.576   0.576   0.576   0.576   0.576   0.576   0.576   0.576   0.576   0.576   0.576   0.576   0.576   0.576
   123.83    0.576   0.576   0.576   0.576   0.576   0.576   0.576   0.576   0.576   0.576   0.576   0.576   0.576   0.576   0.576   0.576   0.576   0.576   0.576   0.576   0.576   0.576   0.576   0.576   0.576   0.576   0.576   0.576   0.576   0.576   0.576
   119.00    0.576   0.576   0.576   0.576   0.576   0.576   0.576   0.576   0.576   0.576   0.576   0.576   0.576   0.576   0.576   0.576   0.576   0.576   0.576   0.576   0.576   0.576   0.576   0.576   0.576   0.576   0.576   0.576   0.576   0.576   0.576
   114.17    0.576   0.576   0.576   0.576   0.576   0.576   0.576   0.576   0.576   0.576   0.576   0.576   0.576   0.576   0.576   0.576   0.576   0.576   0.576   0.576   0.576   0.576   0.576   0.576   0.576   0.576   0.576   0.576   0.576   0.576   0.576
   109.33    0.576   0.576   0.576   0.576   0.576   0.576   0.576   0.576   0.576   0.576   0.576   0.576   0.576   0.576   0.576   0.576   0.576   0.576   0.576   0.576   0.576   0.576   0.576   0.576   0.576   0.576   0.576   0.576   0.576   0.576   0.576
   104.50    0.576   0.576   0.576   0.576   0.576   0.576   0.576   0.576   0.576   0.576   0.576   0.576   0.576   0.576   0.576   0.576   0.576   0.576   0.576   0.576   0.576   0.576   0.576   0.576   0.576   0.576   0.576   0.576   0.576   0.576   0.576
    99.67    0.576   0.576   0.576   0.576   0.576   0.576   0.576   0.576   0.576   0.576   0.576   0.576   0.576   0.576   0.576   0.576   0.576   0.576   0.576   0.576   0.576   0.576   0.576   0.576   0.576   0.576   0.576   0.576   0.576   0.576   0.576
    94.83    0.576   0.576   0.576   0.576   0.576   0.576   0.576   0.576   0.576   0.576   0.576   0.576   0.576   0.576   0.576   0.576   0.576   0.576   0.576   0.576   0.576   0.576   0.576   0.576   0.576   0.576   0.576   0.576   0.576   0.576   0.576
    90.00    0.576   0.576   0.576   0.576   0.576   0.576   0.576   0.576   0.576   0.576   0.576   0.576   0.576   0.576   0.576   0.576   0.576   0.576   0.576   0.576   0.576   0.576   0.576   0.576   0.576   0.576   0.576   0.576   0.576   0.576   0.576
    85.17    0.576   0.576   0.576   0.576   0.576   0.576   0.576   0.576   0.576   0.576   0.576   0.576   0.576   0.576   0.576   0.576   0.576   0.576   0.576   0.576   0.576   0.576   0.576   0.576   0.576   0.576   0.576   0.576   0.576   0.576   0.576
    80.33    0.576   0.576   0.576   0.576   0.576   0.576   0.576   0.576   0.576   0.576   0.576   0.576   0.576   0.576   0.576   0.576   0.576   0.576   0.576   0.576   0.576   0.576   0.576   0.576   0.576   0.576   0.576   0.576   0.576   0.576   0.576
    75.50    0.576   0.576   0.576   0.576   0.576   0.576   0.576   0.576   0.576   0.576   0.576   0.576   0.576   0.576   0.576   0.576   0.576   0.576   0.576   0.576   0.576   0.576   0.576   0.576   0.576   0.576   0.576   0.576   0.576   0.576   0.576
    70.67    0.576   0.576   0.576   0.576   0.576   0.576   0.576   0.576   0.576   0.576   0.576   0.576   0.576   0.576   0.576   0.576   0.576   0.576   0.576   0.576   0.576   0.576   0.576   0.576   0.576   0.576   0.576   0.576   0.576   0.576   0.576
    65.83    0.576   0.576   0.576   0.576   0.576   0.576   0.576   0.576   0.576   0.576   0.576   0.576   0.576   0.576   0.576   0.576   0.576   0.576   0.576   0.576   0.576   0.576   0.576   0.576   0.576   0.576   0.576   0.576   0.576   0.576   0.576
    61.00    0.576   0.576   0.576   0.576   0.576   0.576   0.576   0.576   0.576   0.576   0.576   0.576   0.576   0.576   0.576   0.576   0.576   0.576   0.576   0.576   0.576   0.576   0.576   0.576   0.576   0.576   0.576   0.576   0.576   0.576   0.576
    56.17    0.576   0.576   0.576   0.576   0.576   0.576   0.576   0.576   0.576   0.576   0.576   0.576   0.576   0.576   0.576   0.576   0.576   0.576   0.576   0.576   0.576   0.576   0.576   0.576   0.576   0.576   0.576   0.576   0.576   0.576   0.576
    51.33    0.576   0.576   0.576   0.576   0.576   0.576   0.576   0.576   0.576   0.576   0.576   0.576   0.576   0.576   0.576   0.576   0.576   0.576   0.576   0.576   0.576   0.576   0.576   0.576   0.576   0.576   0.576   0.576   0.576   0.576   0.576
    46.50    0.576   0.576   0.576   0.576   0.576   0.576   0.576   0.576   0.576   0.576   0.576   0.576   0.576   0.576   0.576   0.576   0.576   0.576   0.576   0.576   0.576   0.576   0.576   0.576   0.576   0.576   0.576   0.576   0.576   0.576   0.576
    41.67    0.576   0.576   0.576   0.576   0.576   0.576   0.576   0.576   0.576   0.576   0.576   0.576   0.576   0.576   0.576   0.576   0.576   0.576   0.576   0.576   0.576   0.576   0.576   0.576   0.576   0.576   0.576   0.576   0.576   0.576   0.576
    36.83    0.576   0.576   0.576   0.576   0.576   0.576   0.576   0.576   0.576   0.576   0.576   0.576   0.576   0.576   0.576   0.576   0.576   0.576   0.576   0.576   0.576   0.576   0.576   0.576   0.576   0.576   0.576   0.576   0.576   0.576   0.576
    32.00    0.576   0.576   0.576   0.576   0.576   0.576   0.576   0.576   0.576   0.576   0.576   0.576   0.576   0.576   0.576   0.576   0.576   0.576   0.576   0.576   0.576   0.576   0.576   0.576   0.576   0.576   0.576   0.576   0.576   0.576   0.576
    27.17    0.576   0.576   0.576   0.576   0.576   0.576   0.576   0.576   0.576   0.576   0.576   0.576   0.576   0.576   0.576   0.576   0.576   0.576   0.576   0.576   0.576   0.576   0.576   0.576   0.576   0.576   0.576   0.576   0.576   0.576   0.576
    22.33    0.576   0.576   0.576   0.576   0.576   0.576   0.576   0.576   0.576   0.576   0.576   0.576   0.576   0.576   0.576   0.576   0.576   0.576   0.576   0.576   0.576   0.576   0.576   0.576   0.576   0.576   0.576   0.576   0.576   0.576   0.576
    17.50    0.576   0.576   0.576   0.576   0.576   0.576   0.576   0.576   0.576   0.576   0.576   0.576   0.576   0.576   0.576   0.576   0.576   0.576   0.576   0.576   0.576   0.576   0.576   0.576   0.576   0.576   0.576   0.576   0.576   0.576   0.576

   Height   Standard deviation at grid points for the w component:
   162.50    0.360   0.360   0.360   0.360   0.360   0.360   0.360   0.360   0.360   0.360   0.360   0.360   0.360   0.360   0.360   0.360   0.360   0.360   0.360   0.360   0.360   0.360   0.360   0.360   0.360   0.360   0.360   0.360   0.360   0.360   0.360
   157.67    0.360   0.360   0.360   0.360   0.360   0.360   0.360   0.360   0.360   0.360   0.360   0.360   0.360   0.360   0.360   0.360   0.360   0.360   0.360   0.360   0.360   0.360   0.360   0.360   0.360   0.360   0.360   0.360   0.360   0.360   0.360
   152.83    0.360   0.360   0.360   0.360   0.360   0.360   0.360   0.360   0.360   0.360   0.360   0.360   0.360   0.360   0.360   0.360   0.360   0.360   0.360   0.360   0.360   0.360   0.360   0.360   0.360   0.360   0.360   0.360   0.360   0.360   0.360
   148.00    0.360   0.360   0.360   0.360   0.360   0.360   0.360   0.360   0.360   0.360   0.360   0.360   0.360   0.360   0.360   0.360   0.360   0.360   0.360   0.360   0.360   0.360   0.360   0.360   0.360   0.360   0.360   0.360   0.360   0.360   0.360
   143.17    0.360   0.360   0.360   0.360   0.360   0.360   0.360   0.360   0.360   0.360   0.360   0.360   0.360   0.360   0.360   0.360   0.360   0.360   0.360   0.360   0.360   0.360   0.360   0.360   0.360   0.360   0.360   0.360   0.360   0.360   0.360
   138.33    0.360   0.360   0.360   0.360   0.360   0.360   0.360   0.360   0.360   0.360   0.360   0.360   0.360   0.360   0.360   0.360   0.360   0.360   0.360   0.360   0.360   0.360   0.360   0.360   0.360   0.360   0.360   0.360   0.360   0.360   0.360
   133.50    0.360   0.360   0.360   0.360   0.360   0.360   0.360   0.360   0.360   0.360   0.360   0.360   0.360   0.360   0.360   0.360   0.360   0.360   0.360   0.360   0.360   0.360   0.360   0.360   0.360   0.360   0.360   0.360   0.360   0.360   0.360
   128.67    0.360   0.360   0.360   0.360   0.360   0.360   0.360   0.360   0.360   0.360   0.360   0.360   0.360   0.360   0.360   0.360   0.360   0.360   0.360   0.360   0.360   0.360   0.360   0.360   0.360   0.360   0.360   0.360   0.360   0.360   0.360
   123.83    0.360   0.360   0.360   0.360   0.360   0.360   0.360   0.360   0.360   0.360   0.360   0.360   0.360   0.360   0.360   0.360   0.360   0.360   0.360   0.360   0.360   0.360   0.360   0.360   0.360   0.360   0.360   0.360   0.360   0.360   0.360
   119.00    0.360   0.360   0.360   0.360   0.360   0.360   0.360   0.360   0.360   0.360   0.360   0.360   0.360   0.360   0.360   0.360   0.360   0.360   0.360   0.360   0.360   0.360   0.360   0.360   0.360   0.360   0.360   0.360   0.360   0.360   0.360
   114.17    0.360   0.360   0.360   0.360   0.360   0.360   0.360   0.360   0.360   0.360   0.360   0.360   0.360   0.360   0.360   0.360   0.360   0.360   0.360   0.360   0.360   0.360   0.360   0.360   0.360   0.360   0.360   0.360   0.360   0.360   0.360
   109.33    0.360   0.360   0.360   0.360   0.360   0.360   0.360   0.360   0.360   0.360   0.360   0.360   0.360   0.360   0.360   0.360   0.360   0.360   0.360   0.360   0.360   0.360   0.360   0.360   0.360   0.360   0.360   0.360   0.360   0.360   0.360
   104.50    0.360   0.360   0.360   0.360   0.360   0.360   0.360   0.360   0.360   0.360   0.360   0.360   0.360   0.360   0.360   0.360   0.360   0.360   0.360   0.360   0.360   0.360   0.360   0.360   0.360   0.360   0.360   0.360   0.360   0.360   0.360
    99.67    0.360   0.360   0.360   0.360   0.360   0.360   0.360   0.360   0.360   0.360   0.360   0.360   0.360   0.360   0.360   0.360   0.360   0.360   0.360   0.360   0.360   0.360   0.360   0.360   0.360   0.360   0.360   0.360   0.360   0.360   0.360
    94.83    0.360   0.360   0.360   0.360   0.360   0.360   0.360   0.360   0.360   0.360   0.360   0.360   0.360   0.360   0.360   0.360   0.360   0.360   0.360   0.360   0.360   0.360   0.360   0.360   0.360   0.360   0.360   0.360   0.360   0.360   0.360
    90.00    0.360   0.360   0.360   0.360   0.360   0.360   0.360   0.360   0.360   0.360   0.360   0.360   0.360   0.360   0.360   0.360   0.360   0.360   0.360   0.360   0.360   0.360   0.360   0.360   0.360   0.360   0.360   0.360   0.360   0.360   0.360
    85.17    0.360   0.360   0.360   0.360   0.360   0.360   0.360   0.360   0.360   0.360   0.360   0.360   0.360   0.360   0.360   0.360   0.360   0.360   0.360   0.360   0.360   0.360   0.360   0.360   0.360   0.360   0.360   0.360   0.360   0.360   0.360
    80.33    0.360   0.360   0.360   0.360   0.360   0.360   0.360   0.360   0.360   0.360   0.360   0.360   0.360   0.360   0.360   0.360   0.360   0.360   0.360   0.360   0.360   0.360   0.360   0.360   0.360   0.360   0.360   0.360   0.360   0.360   0.360
    75.50    0.360   0.360   0.360   0.360   0.360   0.360   0.360   0.360   0.360   0.360   0.360   0.360   0.360   0.360   0.360   0.360   0.360   0.360   0.360   0.360   0.360   0.360   0.360   0.360   0.360   0.360   0.360   0.360   0.360   0.360   0.360
    70.67    0.360   0.360   0.360   0.360   0.360   0.360   0.360   0.360   0.360   0.360   0.360   0.360   0.360   0.360   0.360   0.360   0.360   0.360   0.360   0.360   0.360   0.360   0.360   0.360   0.360   0.360   0.360   0.360   0.360   0.360   0.360
    65.83    0.360   0.360   0.360   0.360   0.360   0.360   0.360   0.360   0.360   0.360   0.360   0.360   0.360   0.360   0.360   0.360   0.360   0.360   0.360   0.360   0.360   0.360   0.360   0.360   0.360   0.360   0.360   0.360   0.360   0.360   0.360
    61.00    0.360   0.360   0.360   0.360   0.360   0.360   0.360   0.360   0.360   0.360   0.360   0.360   0.360   0.360   0.360   0.360   0.360   0.360   0.360   0.360   0.360   0.360   0.360   0.360   0.360   0.360   0.360   0.360   0.360   0.360   0.360
    56.17    0.360   0.360   0.360   0.360   0.360   0.360   0.360   0.360   0.360   0.360   0.360   0.360   0.360   0.360   0.360   0.360   0.360   0.360   0.360   0.360   0.360   0.360   0.360   0.360   0.360   0.360   0.360   0.360   0.360   0.360   0.360
    51.33    0.360   0.360   0.360   0.360   0.360   0.360   0.360   0.360   0.360   0.360   0.360   0.360   0.360   0.360   0.360   0.360   0.360   0.360   0.360   0.360   0.360   0.360   0.360   0.360   0.360   0.360   0.360   0.360   0.360   0.360   0.360
    46.50    0.360   0.360   0.360   0.360   0.360   0.360   0.360   0.360   0.360   0.360   0.360   0.360   0.360   0.360   0.360   0.360   0.360   0.360   0.360   0.360   0.360   0.360   0.360   0.360   0.360   0.360   0.360   0.360   0.360   0.360   0.360
    41.67    0.360   0.360   0.360   0.360   0.360   0.360   0.360   0.360   0.360   0.360   0.360   0.360   0.360   0.360   0.360   0.360   0.360   0.360   0.360   0.360   0.360   0.360   0.360   0.360   0.360   0.360   0.360   0.360   0.360   0.360   0.360
    36.83    0.360   0.360   0.360   0.360   0.360   0.360   0.360   0.360   0.360   0.360   0.360   0.360   0.360   0.360   0.360   0.360   0.360   0.360   0.360   0.360   0.360   0.360   0.360   0.360   0.360   0.360   0.360   0.360   0.360   0.360   0.360
    32.00    0.360   0.360   0.360   0.360   0.360   0.360   0.360   0.360   0.360   0.360   0.360   0.360   0.360   0.360   0.360   0.360   0.360   0.360   0.360   0.360   0.360   0.360   0.360   0.360   0.360   0.360   0.360   0.360   0.360   0.360   0.360
    27.17    0.360   0.360   0.360   0.360   0.360   0.360   0.360   0.360   0.360   0.360   0.360   0.360   0.360   0.360   0.360   0.360   0.360   0.360   0.360   0.360   0.360   0.360   0.360   0.360   0.360   0.360   0.360   0.360   0.360   0.360   0.360
    22.33    0.360   0.360   0.360   0.360   0.360   0.360   0.360   0.360   0.360   0.360   0.360   0.360   0.360   0.360   0.360   0.360   0.360   0.360   0.360   0.360   0.360   0.360   0.360   0.360   0.360   0.360   0.360   0.360   0.360   0.360   0.360
    17.50    0.360   0.360   0.360   0.360   0.360   0.360   0.360   0.360   0.360   0.360   0.360   0.360   0.360   0.360   0.360   0.360   0.360   0.360   0.360   0.360   0.360   0.360   0.360   0.360   0.360   0.360   0.360   0.360   0.360   0.360   0.360

   Mean standard deviation across all grid points:
      u component:    0.720 m/s
      v component:    0.576 m/s
      w component:    0.360 m/s


U-component (X) statistics from the interpolated hub point:

   Mean =   9.0000 m/s
   TI   =   8.0000 %


Processing complete.  42.438 CPU seconds used.
