
This summary file was generated by TurbSim (from OpenFAST-v3.5.4) on 28-Aug-2025 at 14:13:03.


Runtime Options:

     13426  Random seed #1
    RANLUX  Type of random number generator
         F  Output binary HH turbulence parameters?
         F  Output formatted turbulence parameters?
         F  Output AeroDyn HH files?
         T  Output AeroDyn FF files?
         F  Output BLADED FF files?
         T  Output tower data?
         F  Output HAWC FF files?
         F  Output formatted FF files?
         T  Output coherent turbulence time step file?
 2 -   ALL  IEC turbulence models scaled to exact specified standard deviation


Turbine/Model Specifications:

        12  Vertical grid-point matrix dimension
        12  Horizontal grid-point matrix dimension
     0.050  Time step [seconds]
   660.000  Analysis time [seconds]
   660.000  Usable output time [seconds]
   110.000  Hub height [m]
   150.000  Grid height [m]
   150.000  Grid width [m]
     0.000  Vertical flow angle [degrees]
     0.000  Horizontal flow angle [degrees]


Meteorological Boundary Conditions:

    IECKAI  IEC Kaimal spectral model
         1  IEC standard: IEC 61400-1 Ed. 3: 2005
     8.000  Percent turbulence intensity, IEC 61400-1 Ed. 3: 2005
       NTM  IEC Normal Turbulence Model
       N/A  IEC Extreme Turbulence Model (ETM) "c" parameter [m/s]
       PL   Wind profile type
   110.000  Reference height [m]
     7.000  Reference wind speed [m/s]
       N/A  Jet height [m]
     0.200  Power law exponent
     0.030  Surface roughness length [m]


Non-IEC Meteorological Boundary Conditions:

       N/A  Site latitude [degrees]
       N/A  Gradient Richardson number
       N/A  Friction or shear velocity [m/s]
       N/A  Mixing layer depth [m]
       N/A  Mean hub u'w' Reynolds stress
       N/A  Mean hub u'v' Reynolds stress
       N/A  Mean hub v'w' Reynolds stress


Spatial Coherence Models:

       IEC  u-component coherence model
      NONE  v-component coherence model
      NONE  w-component coherence model
(   12.000, 0.353E-03)  u-component coherence parameters
                   N/A  v-component coherence parameters
                   N/A  w-component coherence parameters
       N/A  Coherence exponent


You have requested that the following file(s) be generated:

   SPW/v7/TI8.0/sd0/IEAonshore_7_sh0.2_TI8.0_sd0.bts (AeroDyn/TurbSim full-field wind file)


Turbulence Simulation Scaling Parameter Summary:

   Turbulence model used                            =  IEC Kaimal
   Turbulence characteristic                        =  User-specified
   IEC standard                                     =  IEC 61400-1 Ed. 3: 2005
   Mean wind speed at hub height                    =    7.000 m/s
   Characteristic value of standard deviation       =    0.560 m/s
   Turbulence scale                                 =   42.000 m
   u-component integral scale                       =  340.200 m
   Coherency scale                                  =  340.200 m
   Characteristic value of hub turbulence intensity =    8.000%
   Gradient Richardson number                       =    0.000

   Wind profile type                                =  Power law
   Power law exponent                               =    0.200
   Mean shear across rotor disk                     =    0.015 (m/s)/m
   Assumed rotor diameter                           =  150.000 m
   Surface roughness length                         =    0.030 m

   Nyquist frequency of turbulent wind field        =   10.000 Hz

   Number of time steps in the FFT                  =    13200
   Number of time steps output                      =    13200
   Number of points simulated                       =      148


Mean Flow Angles:

   Vertical   =   0.0 degrees
   Horizontal =   0.0 degrees

Mean Wind Speed Profile:

   Height    Wind Speed   Horizontal Angle  Vertical Angle  U-comp (X)   V-comp (Y)   W-comp (Z)
     (m)        (m/s)         (degrees)       (degrees)       (m/s)        (m/s)        (m/s)   
   ------    ----------   ----------------  --------------  ----------   ----------   ----------
    185.0        7.77            0.00            0.00          7.77         0.00         0.00
    171.4        7.65            0.00            0.00          7.65         0.00         0.00
    157.7        7.52            0.00            0.00          7.52         0.00         0.00
    144.1        7.39            0.00            0.00          7.39         0.00         0.00
    130.5        7.24            0.00            0.00          7.24         0.00         0.00
    116.8        7.08            0.00            0.00          7.08         0.00         0.00
    110.0        7.00            0.00            0.00          7.00         0.00         0.00
    103.2        6.91            0.00            0.00          6.91         0.00         0.00
     89.5        6.72            0.00            0.00          6.72         0.00         0.00
     75.9        6.50            0.00            0.00          6.50         0.00         0.00
     62.3        6.25            0.00            0.00          6.25         0.00         0.00
     48.6        5.95            0.00            0.00          5.95         0.00         0.00
     35.0        5.57            0.00            0.00          5.57         0.00         0.00
     21.4        5.04            0.00            0.00          5.04         0.00         0.00
      7.7        4.12            0.00            0.00          4.12         0.00         0.00


Harvested Random Seeds after Generation of the Random Numbers:

     27228300 K 1
            0 K 2


Scaling statistics from the hub grid point:

  Component  Target Sigma (m/s)  Simulated Sigma (m/s)  Scaling Factor
  ---------  ------------------  ---------------------  --------------
     u'             0.560                0.493                1.135
     v'             0.448                0.435                1.030
     w'             0.280                0.275                1.019


Hub-Height Simulated Turbulence Statistical Summary:

   Type of Wind        Min (m/s)   Mean (m/s)    Max (m/s)  Sigma (m/s)       TI (%)
   ----------------    ---------   ----------    ---------  -----------       ------
   Longitudinal (u)         5.43         7.00         8.53        0.560        8.000
   Lateral (v)             -1.34         0.00         1.51        0.448        6.400
   Vertical (w)            -0.85         0.00         0.92        0.280        4.000
   U component              5.43         7.00         8.53        0.560        8.000
   V component             -1.34         0.00         1.51        0.448        6.400
   W component             -0.85         0.00         0.92        0.280        4.000
   Horizontal (U&V)         5.49         7.01         8.53        0.558        7.955
   Total                    5.49         7.02         8.53        0.557        7.935

                       Min Reynolds     Mean Reynolds    Max Reynolds    Correlation
   Product             Stress (m/s)^2   Stress (m/s)^2   Stress (m/s)^2  Coefficient
   ----------------    --------------   --------------   --------------  -----------
   u'w'                     -0.825            -0.010             0.793        -0.061
   u'v'                     -2.219            -0.010             1.095        -0.038
   v'w'                     -0.849             0.001             0.761         0.007


   Friction Velocity (Ustar)  =      0.098 m/s
   Maximum Instantaneous TKE  =      2.278 (m/s)^2
   Maximum Instantaneous CTKE =      1.155 (m/s)^2


Grid Point Variance Summary:

   Y-coord  -75.00  -61.36  -47.73  -34.09  -20.45   -6.82    6.82   20.45   34.09   47.73   61.36   75.00

   Height   Standard deviation at grid points for the u component:
   185.00    0.560   0.560   0.560   0.560   0.560   0.560   0.560   0.560   0.560   0.560   0.560   0.560
   171.36    0.560   0.560   0.560   0.560   0.560   0.560   0.560   0.560   0.560   0.560   0.560   0.560
   157.73    0.560   0.560   0.560   0.560   0.560   0.560   0.560   0.560   0.560   0.560   0.560   0.560
   144.09    0.560   0.560   0.560   0.560   0.560   0.560   0.560   0.560   0.560   0.560   0.560   0.560
   130.45    0.560   0.560   0.560   0.560   0.560   0.560   0.560   0.560   0.560   0.560   0.560   0.560
   116.82    0.560   0.560   0.560   0.560   0.560   0.560   0.560   0.560   0.560   0.560   0.560   0.560
   103.18    0.560   0.560   0.560   0.560   0.560   0.560   0.560   0.560   0.560   0.560   0.560   0.560
    89.55    0.560   0.560   0.560   0.560   0.560   0.560   0.560   0.560   0.560   0.560   0.560   0.560
    75.91    0.560   0.560   0.560   0.560   0.560   0.560   0.560   0.560   0.560   0.560   0.560   0.560
    62.27    0.560   0.560   0.560   0.560   0.560   0.560   0.560   0.560   0.560   0.560   0.560   0.560
    48.64    0.560   0.560   0.560   0.560   0.560   0.560   0.560   0.560   0.560   0.560   0.560   0.560
    35.00    0.560   0.560   0.560   0.560   0.560   0.560   0.560   0.560   0.560   0.560   0.560   0.560

   Height   Standard deviation at grid points for the v component:
   185.00    0.448   0.448   0.448   0.448   0.448   0.448   0.448   0.448   0.448   0.448   0.448   0.448
   171.36    0.448   0.448   0.448   0.448   0.448   0.448   0.448   0.448   0.448   0.448   0.448   0.448
   157.73    0.448   0.448   0.448   0.448   0.448   0.448   0.448   0.448   0.448   0.448   0.448   0.448
   144.09    0.448   0.448   0.448   0.448   0.448   0.448   0.448   0.448   0.448   0.448   0.448   0.448
   130.45    0.448   0.448   0.448   0.448   0.448   0.448   0.448   0.448   0.448   0.448   0.448   0.448
   116.82    0.448   0.448   0.448   0.448   0.448   0.448   0.448   0.448   0.448   0.448   0.448   0.448
   103.18    0.448   0.448   0.448   0.448   0.448   0.448   0.448   0.448   0.448   0.448   0.448   0.448
    89.55    0.448   0.448   0.448   0.448   0.448   0.448   0.448   0.448   0.448   0.448   0.448   0.448
    75.91    0.448   0.448   0.448   0.448   0.448   0.448   0.448   0.448   0.448   0.448   0.448   0.448
    62.27    0.448   0.448   0.448   0.448   0.448   0.448   0.448   0.448   0.448   0.448   0.448   0.448
    48.64    0.448   0.448   0.448   0.448   0.448   0.448   0.448   0.448   0.448   0.448   0.448   0.448
    35.00    0.448   0.448   0.448   0.448   0.448   0.448   0.448   0.448   0.448   0.448   0.448   0.448

   Height   Standard deviation at grid points for the w component:
   185.00    0.280   0.280   0.280   0.280   0.280   0.280   0.280   0.280   0.280   0.280   0.280   0.280
   171.36    0.280   0.280   0.280   0.280   0.280   0.280   0.280   0.280   0.280   0.280   0.280   0.280
   157.73    0.280   0.280   0.280   0.280   0.280   0.280   0.280   0.280   0.280   0.280   0.280   0.280
   144.09    0.280   0.280   0.280   0.280   0.280   0.280   0.280   0.280   0.280   0.280   0.280   0.280
   130.45    0.280   0.280   0.280   0.280   0.280   0.280   0.280   0.280   0.280   0.280   0.280   0.280
   116.82    0.280   0.280   0.280   0.280   0.280   0.280   0.280   0.280   0.280   0.280   0.280   0.280
   103.18    0.280   0.280   0.280   0.280   0.280   0.280   0.280   0.280   0.280   0.280   0.280   0.280
    89.55    0.280   0.280   0.280   0.280   0.280   0.280   0.280   0.280   0.280   0.280   0.280   0.280
    75.91    0.280   0.280   0.280   0.280   0.280   0.280   0.280   0.280   0.280   0.280   0.280   0.280
    62.27    0.280   0.280   0.280   0.280   0.280   0.280   0.280   0.280   0.280   0.280   0.280   0.280
    48.64    0.280   0.280   0.280   0.280   0.280   0.280   0.280   0.280   0.280   0.280   0.280   0.280
    35.00    0.280   0.280   0.280   0.280   0.280   0.280   0.280   0.280   0.280   0.280   0.280   0.280

   Mean standard deviation across all grid points:
      u component:    0.560 m/s
      v component:    0.448 m/s
      w component:    0.280 m/s


U-component (X) statistics from the interpolated hub point:

   Mean =   6.9978 m/s
   TI   =   6.6776 %


Processing complete.  0.78125 CPU seconds used.
