
This summary file was generated by TurbSim (from OpenFAST-v3.5.4) on 02-Sep-2025 at 12:24:48.


Runtime Options:

     13426  Random seed #1
    RANLUX  Type of random number generator
         F  Output binary HH turbulence parameters?
         F  Output formatted turbulence parameters?
         F  Output AeroDyn HH files?
         T  Output AeroDyn FF files?
         F  Output BLADED FF files?
         T  Output tower data?
         F  Output HAWC FF files?
         F  Output formatted FF files?
         T  Output coherent turbulence time step file?
 2 -   ALL  IEC turbulence models scaled to exact specified standard deviation


Turbine/Model Specifications:

        12  Vertical grid-point matrix dimension
        12  Horizontal grid-point matrix dimension
     0.050  Time step [seconds]
   660.000  Analysis time [seconds]
   660.000  Usable output time [seconds]
    90.000  Hub height [m]
   150.000  Grid height [m]
   150.000  Grid width [m]
     0.000  Vertical flow angle [degrees]
     0.000  Horizontal flow angle [degrees]


Meteorological Boundary Conditions:

    IECKAI  IEC Kaimal spectral model
         1  IEC standard: IEC 61400-1 Ed. 3: 2005
     8.000  Percent turbulence intensity, IEC 61400-1 Ed. 3: 2005
       NTM  IEC Normal Turbulence Model
       N/A  IEC Extreme Turbulence Model (ETM) "c" parameter [m/s]
       PL   Wind profile type
    90.000  Reference height [m]
     6.000  Reference wind speed [m/s]
       N/A  Jet height [m]
     0.200  Power law exponent
     0.030  Surface roughness length [m]


Non-IEC Meteorological Boundary Conditions:

       N/A  Site latitude [degrees]
       N/A  Gradient Richardson number
       N/A  Friction or shear velocity [m/s]
       N/A  Mixing layer depth [m]
       N/A  Mean hub u'w' Reynolds stress
       N/A  Mean hub u'v' Reynolds stress
       N/A  Mean hub v'w' Reynolds stress


Spatial Coherence Models:

       IEC  u-component coherence model
      NONE  v-component coherence model
      NONE  w-component coherence model
(   12.000, 0.353E-03)  u-component coherence parameters
                   N/A  v-component coherence parameters
                   N/A  w-component coherence parameters
       N/A  Coherence exponent


You have requested that the following file(s) be generated:

   SPW/v6/TI8.0/sd0/NREL_2p3_6_sh0.2_TI8.0_sd0.bts (AeroDyn/TurbSim full-field wind file)


Turbulence Simulation Scaling Parameter Summary:

   Turbulence model used                            =  IEC Kaimal
   Turbulence characteristic                        =  User-specified
   IEC standard                                     =  IEC 61400-1 Ed. 3: 2005
   Mean wind speed at hub height                    =    6.000 m/s
   Characteristic value of standard deviation       =    0.480 m/s
   Turbulence scale                                 =   42.000 m
   u-component integral scale                       =  340.200 m
   Coherency scale                                  =  340.200 m
   Characteristic value of hub turbulence intensity =    8.000%
   Gradient Richardson number                       =    0.000

   Wind profile type                                =  Power law
   Power law exponent                               =    0.200
   Mean shear across rotor disk                     =    0.017 (m/s)/m
   Assumed rotor diameter                           =  150.000 m
   Surface roughness length                         =    0.030 m

   Nyquist frequency of turbulent wind field        =   10.000 Hz

   Number of time steps in the FFT                  =    13200
   Number of time steps output                      =    13200
   Number of points simulated                       =      147


Mean Flow Angles:

   Vertical   =   0.0 degrees
   Horizontal =   0.0 degrees

Mean Wind Speed Profile:

   Height    Wind Speed   Horizontal Angle  Vertical Angle  U-comp (X)   V-comp (Y)   W-comp (Z)
     (m)        (m/s)         (degrees)       (degrees)       (m/s)        (m/s)        (m/s)   
   ------    ----------   ----------------  --------------  ----------   ----------   ----------
    165.0        6.77            0.00            0.00          6.77         0.00         0.00
    151.4        6.66            0.00            0.00          6.66         0.00         0.00
    137.7        6.53            0.00            0.00          6.53         0.00         0.00
    124.1        6.40            0.00            0.00          6.40         0.00         0.00
    110.5        6.25            0.00            0.00          6.25         0.00         0.00
     96.8        6.09            0.00            0.00          6.09         0.00         0.00
     90.0        6.00            0.00            0.00          6.00         0.00         0.00
     83.2        5.91            0.00            0.00          5.91         0.00         0.00
     69.5        5.70            0.00            0.00          5.70         0.00         0.00
     55.9        5.46            0.00            0.00          5.46         0.00         0.00
     42.3        5.16            0.00            0.00          5.16         0.00         0.00
     28.6        4.77            0.00            0.00          4.77         0.00         0.00
     15.0        4.19            0.00            0.00          4.19         0.00         0.00
      1.4        2.60            0.00            0.00          2.60         0.00         0.00


Harvested Random Seeds after Generation of the Random Numbers:

     27044325 K 1
            0 K 2


Scaling statistics from the hub grid point:

  Component  Target Sigma (m/s)  Simulated Sigma (m/s)  Scaling Factor
  ---------  ------------------  ---------------------  --------------
     u'             0.480                0.423                1.135
     v'             0.384                0.372                1.033
     w'             0.240                0.235                1.019


Hub-Height Simulated Turbulence Statistical Summary:

   Type of Wind        Min (m/s)   Mean (m/s)    Max (m/s)  Sigma (m/s)       TI (%)
   ----------------    ---------   ----------    ---------  -----------       ------
   Longitudinal (u)         4.73         6.00         7.32        0.480        8.000
   Lateral (v)             -1.34        -0.00         1.23        0.384        6.400
   Vertical (w)            -0.81        -0.00         0.90        0.240        4.000
   U component              4.73         6.00         7.32        0.480        8.000
   V component             -1.34        -0.00         1.23        0.384        6.400
   W component             -0.81        -0.00         0.90        0.240        4.000
   Horizontal (U&V)         4.75         6.01         7.33        0.483        8.033
   Total                    4.76         6.02         7.33        0.483        8.025

                       Min Reynolds     Mean Reynolds    Max Reynolds    Correlation
   Product             Stress (m/s)^2   Stress (m/s)^2   Stress (m/s)^2  Coefficient
   ----------------    --------------   --------------   --------------  -----------
   u'w'                     -0.625             0.009             0.865         0.078
   u'v'                     -1.012            -0.038             0.810        -0.208
   v'w'                     -0.694            -0.005             0.440        -0.055


   Friction Velocity (Ustar)  =      0.095 m/s
   Maximum Instantaneous TKE  =      1.178 (m/s)^2
   Maximum Instantaneous CTKE =      0.563 (m/s)^2


Grid Point Variance Summary:

   Y-coord  -75.00  -61.36  -47.73  -34.09  -20.45   -6.82    6.82   20.45   34.09   47.73   61.36   75.00

   Height   Standard deviation at grid points for the u component:
   165.00    0.480   0.480   0.480   0.480   0.480   0.480   0.480   0.480   0.480   0.480   0.480   0.480
   151.36    0.480   0.480   0.480   0.480   0.480   0.480   0.480   0.480   0.480   0.480   0.480   0.480
   137.73    0.480   0.480   0.480   0.480   0.480   0.480   0.480   0.480   0.480   0.480   0.480   0.480
   124.09    0.480   0.480   0.480   0.480   0.480   0.480   0.480   0.480   0.480   0.480   0.480   0.480
   110.45    0.480   0.480   0.480   0.480   0.480   0.480   0.480   0.480   0.480   0.480   0.480   0.480
    96.82    0.480   0.480   0.480   0.480   0.480   0.480   0.480   0.480   0.480   0.480   0.480   0.480
    83.18    0.480   0.480   0.480   0.480   0.480   0.480   0.480   0.480   0.480   0.480   0.480   0.480
    69.55    0.480   0.480   0.480   0.480   0.480   0.480   0.480   0.480   0.480   0.480   0.480   0.480
    55.91    0.480   0.480   0.480   0.480   0.480   0.480   0.480   0.480   0.480   0.480   0.480   0.480
    42.27    0.480   0.480   0.480   0.480   0.480   0.480   0.480   0.480   0.480   0.480   0.480   0.480
    28.64    0.480   0.480   0.480   0.480   0.480   0.480   0.480   0.480   0.480   0.480   0.480   0.480
    15.00    0.480   0.480   0.480   0.480   0.480   0.480   0.480   0.480   0.480   0.480   0.480   0.480

   Height   Standard deviation at grid points for the v component:
   165.00    0.384   0.384   0.384   0.384   0.384   0.384   0.384   0.384   0.384   0.384   0.384   0.384
   151.36    0.384   0.384   0.384   0.384   0.384   0.384   0.384   0.384   0.384   0.384   0.384   0.384
   137.73    0.384   0.384   0.384   0.384   0.384   0.384   0.384   0.384   0.384   0.384   0.384   0.384
   124.09    0.384   0.384   0.384   0.384   0.384   0.384   0.384   0.384   0.384   0.384   0.384   0.384
   110.45    0.384   0.384   0.384   0.384   0.384   0.384   0.384   0.384   0.384   0.384   0.384   0.384
    96.82    0.384   0.384   0.384   0.384   0.384   0.384   0.384   0.384   0.384   0.384   0.384   0.384
    83.18    0.384   0.384   0.384   0.384   0.384   0.384   0.384   0.384   0.384   0.384   0.384   0.384
    69.55    0.384   0.384   0.384   0.384   0.384   0.384   0.384   0.384   0.384   0.384   0.384   0.384
    55.91    0.384   0.384   0.384   0.384   0.384   0.384   0.384   0.384   0.384   0.384   0.384   0.384
    42.27    0.384   0.384   0.384   0.384   0.384   0.384   0.384   0.384   0.384   0.384   0.384   0.384
    28.64    0.384   0.384   0.384   0.384   0.384   0.384   0.384   0.384   0.384   0.384   0.384   0.384
    15.00    0.384   0.384   0.384   0.384   0.384   0.384   0.384   0.384   0.384   0.384   0.384   0.384

   Height   Standard deviation at grid points for the w component:
   165.00    0.240   0.240   0.240   0.240   0.240   0.240   0.240   0.240   0.240   0.240   0.240   0.240
   151.36    0.240   0.240   0.240   0.240   0.240   0.240   0.240   0.240   0.240   0.240   0.240   0.240
   137.73    0.240   0.240   0.240   0.240   0.240   0.240   0.240   0.240   0.240   0.240   0.240   0.240
   124.09    0.240   0.240   0.240   0.240   0.240   0.240   0.240   0.240   0.240   0.240   0.240   0.240
   110.45    0.240   0.240   0.240   0.240   0.240   0.240   0.240   0.240   0.240   0.240   0.240   0.240
    96.82    0.240   0.240   0.240   0.240   0.240   0.240   0.240   0.240   0.240   0.240   0.240   0.240
    83.18    0.240   0.240   0.240   0.240   0.240   0.240   0.240   0.240   0.240   0.240   0.240   0.240
    69.55    0.240   0.240   0.240   0.240   0.240   0.240   0.240   0.240   0.240   0.240   0.240   0.240
    55.91    0.240   0.240   0.240   0.240   0.240   0.240   0.240   0.240   0.240   0.240   0.240   0.240
    42.27    0.240   0.240   0.240   0.240   0.240   0.240   0.240   0.240   0.240   0.240   0.240   0.240
    28.64    0.240   0.240   0.240   0.240   0.240   0.240   0.240   0.240   0.240   0.240   0.240   0.240
    15.00    0.240   0.240   0.240   0.240   0.240   0.240   0.240   0.240   0.240   0.240   0.240   0.240

   Mean standard deviation across all grid points:
      u component:    0.480 m/s
      v component:    0.384 m/s
      w component:    0.240 m/s


U-component (X) statistics from the interpolated hub point:

   Mean =   5.9972 m/s
   TI   =   6.6466 %


Processing complete.  0.6875 CPU seconds used.
