
This summary file was generated by TurbSim (from OpenFAST-v3.5.4) on 02-Sep-2025 at 12:23:53.


Runtime Options:

     13426  Random seed #1
    RANLUX  Type of random number generator
         F  Output binary HH turbulence parameters?
         F  Output formatted turbulence parameters?
         F  Output AeroDyn HH files?
         T  Output AeroDyn FF files?
         F  Output BLADED FF files?
         T  Output tower data?
         F  Output HAWC FF files?
         F  Output formatted FF files?
         F  Output coherent turbulence time step file?
 2 -   ALL  IEC turbulence models scaled to exact specified standard deviation


Turbine/Model Specifications:

        31  Vertical grid-point matrix dimension
        31  Horizontal grid-point matrix dimension
     0.050  Time step [seconds]
   660.000  Analysis time [seconds]
   660.000  Usable output time [seconds]
    90.000  Hub height [m]
   145.000  Grid height [m]
   145.000  Grid width [m]
     0.000  Vertical flow angle [degrees]
     0.000  Horizontal flow angle [degrees]


Meteorological Boundary Conditions:

    IECKAI  IEC Kaimal spectral model
         1  IEC standard: IEC 61400-1 Ed. 3: 2005
     8.000  Percent turbulence intensity, IEC 61400-1 Ed. 3: 2005
       NTM  IEC Normal Turbulence Model
       N/A  IEC Extreme Turbulence Model (ETM) "c" parameter [m/s]
       PL   Wind profile type
    90.000  Reference height [m]
     6.000  Reference wind speed [m/s]
       N/A  Jet height [m]
     0.200  Power law exponent
     0.030  Surface roughness length [m]


Non-IEC Meteorological Boundary Conditions:

       N/A  Site latitude [degrees]
       N/A  Gradient Richardson number
       N/A  Friction or shear velocity [m/s]
       N/A  Mixing layer depth [m]
       N/A  Mean hub u'w' Reynolds stress
       N/A  Mean hub u'v' Reynolds stress
       N/A  Mean hub v'w' Reynolds stress


Spatial Coherence Models:

       IEC  u-component coherence model
      NONE  v-component coherence model
      NONE  w-component coherence model
(   12.000, 0.353E-03)  u-component coherence parameters
                   N/A  v-component coherence parameters
                   N/A  w-component coherence parameters
       N/A  Coherence exponent


You have requested that the following file(s) be generated:

   SPW/v6/TI8.0/sd0/NREL5MW_6_sh0.2_TI8.0_sd0.bts (AeroDyn/TurbSim full-field wind file)


Turbulence Simulation Scaling Parameter Summary:

   Turbulence model used                            =  IEC Kaimal
   Turbulence characteristic                        =  User-specified
   IEC standard                                     =  IEC 61400-1 Ed. 3: 2005
   Mean wind speed at hub height                    =    6.000 m/s
   Characteristic value of standard deviation       =    0.480 m/s
   Turbulence scale                                 =   42.000 m
   u-component integral scale                       =  340.200 m
   Coherency scale                                  =  340.200 m
   Characteristic value of hub turbulence intensity =    8.000%
   Gradient Richardson number                       =    0.000

   Wind profile type                                =  Power law
   Power law exponent                               =    0.200
   Mean shear across rotor disk                     =    0.017 (m/s)/m
   Assumed rotor diameter                           =  145.000 m
   Surface roughness length                         =    0.030 m

   Nyquist frequency of turbulent wind field        =   10.000 Hz

   Number of time steps in the FFT                  =    13200
   Number of time steps output                      =    13200
   Number of points simulated                       =      964


Mean Flow Angles:

   Vertical   =   0.0 degrees
   Horizontal =   0.0 degrees

Mean Wind Speed Profile:

   Height    Wind Speed   Horizontal Angle  Vertical Angle  U-comp (X)   V-comp (Y)   W-comp (Z)
     (m)        (m/s)         (degrees)       (degrees)       (m/s)        (m/s)        (m/s)   
   ------    ----------   ----------------  --------------  ----------   ----------   ----------
    162.5        6.75            0.00            0.00          6.75         0.00         0.00
    157.7        6.71            0.00            0.00          6.71         0.00         0.00
    152.8        6.67            0.00            0.00          6.67         0.00         0.00
    148.0        6.63            0.00            0.00          6.63         0.00         0.00
    143.2        6.58            0.00            0.00          6.58         0.00         0.00
    138.3        6.54            0.00            0.00          6.54         0.00         0.00
    133.5        6.49            0.00            0.00          6.49         0.00         0.00
    128.7        6.44            0.00            0.00          6.44         0.00         0.00
    123.8        6.40            0.00            0.00          6.40         0.00         0.00
    119.0        6.34            0.00            0.00          6.34         0.00         0.00
    114.2        6.29            0.00            0.00          6.29         0.00         0.00
    109.3        6.24            0.00            0.00          6.24         0.00         0.00
    104.5        6.18            0.00            0.00          6.18         0.00         0.00
     99.7        6.12            0.00            0.00          6.12         0.00         0.00
     94.8        6.06            0.00            0.00          6.06         0.00         0.00
     90.0        6.00            0.00            0.00          6.00         0.00         0.00
     85.2        5.93            0.00            0.00          5.93         0.00         0.00
     80.3        5.87            0.00            0.00          5.87         0.00         0.00
     75.5        5.79            0.00            0.00          5.79         0.00         0.00
     70.7        5.72            0.00            0.00          5.72         0.00         0.00
     65.8        5.64            0.00            0.00          5.64         0.00         0.00
     61.0        5.55            0.00            0.00          5.55         0.00         0.00
     56.2        5.46            0.00            0.00          5.46         0.00         0.00
     51.3        5.36            0.00            0.00          5.36         0.00         0.00
     46.5        5.26            0.00            0.00          5.26         0.00         0.00
     41.7        5.14            0.00            0.00          5.14         0.00         0.00
     36.8        5.02            0.00            0.00          5.02         0.00         0.00
     32.0        4.88            0.00            0.00          4.88         0.00         0.00
     27.2        4.72            0.00            0.00          4.72         0.00         0.00
     22.3        4.54            0.00            0.00          4.54         0.00         0.00
     17.5        4.32            0.00            0.00          4.32         0.00         0.00
     12.7        4.05            0.00            0.00          4.05         0.00         0.00
      7.8        3.68            0.00            0.00          3.68         0.00         0.00
      3.0        3.04            0.00            0.00          3.04         0.00         0.00


Harvested Random Seeds after Generation of the Random Numbers:

    177351900 K 1
            0 K 2


Scaling statistics from the hub grid point:

  Component  Target Sigma (m/s)  Simulated Sigma (m/s)  Scaling Factor
  ---------  ------------------  ---------------------  --------------
     u'             0.480                0.471                1.019
     v'             0.384                0.372                1.033
     w'             0.240                0.235                1.019


Hub-Height Simulated Turbulence Statistical Summary:

   Type of Wind        Min (m/s)   Mean (m/s)    Max (m/s)  Sigma (m/s)       TI (%)
   ----------------    ---------   ----------    ---------  -----------       ------
   Longitudinal (u)         4.77         6.00         7.45        0.480        8.000
   Lateral (v)             -1.29        -0.00         1.50        0.384        6.400
   Vertical (w)            -0.96         0.00         0.79        0.240        4.000
   U component              4.77         6.00         7.45        0.480        8.000
   V component             -1.29        -0.00         1.50        0.384        6.400
   W component             -0.96         0.00         0.79        0.240        4.000
   Horizontal (U&V)         4.78         6.01         7.46        0.477        7.927
   Total                    4.78         6.02         7.47        0.476        7.918

                       Min Reynolds     Mean Reynolds    Max Reynolds    Correlation
   Product             Stress (m/s)^2   Stress (m/s)^2   Stress (m/s)^2  Coefficient
   ----------------    --------------   --------------   --------------  -----------
   u'w'                     -0.691             0.002             0.798         0.013
   u'v'                     -1.105            -0.005             0.968        -0.029
   v'w'                     -0.599             0.001             0.544         0.014


   Friction Velocity (Ustar)  =      0.039 m/s
   Maximum Instantaneous TKE  =      1.399 (m/s)^2
   Maximum Instantaneous CTKE =      0.570 (m/s)^2


Grid Point Variance Summary:

   Y-coord  -72.50  -67.67  -62.83  -58.00  -53.17  -48.33  -43.50  -38.67  -33.83  -29.00  -24.17  -19.33  -14.50   -9.67   -4.83    0.00    4.83    9.67   14.50   19.33   24.17   29.00   33.83   38.67   43.50   48.33   53.17   58.00   62.83   67.67   72.50

   Height   Standard deviation at grid points for the u component:
   162.50    0.480   0.480   0.480   0.480   0.480   0.480   0.480   0.480   0.480   0.480   0.480   0.480   0.480   0.480   0.480   0.480   0.480   0.480   0.480   0.480   0.480   0.480   0.480   0.480   0.480   0.480   0.480   0.480   0.480   0.480   0.480
   157.67    0.480   0.480   0.480   0.480   0.480   0.480   0.480   0.480   0.480   0.480   0.480   0.480   0.480   0.480   0.480   0.480   0.480   0.480   0.480   0.480   0.480   0.480   0.480   0.480   0.480   0.480   0.480   0.480   0.480   0.480   0.480
   152.83    0.480   0.480   0.480   0.480   0.480   0.480   0.480   0.480   0.480   0.480   0.480   0.480   0.480   0.480   0.480   0.480   0.480   0.480   0.480   0.480   0.480   0.480   0.480   0.480   0.480   0.480   0.480   0.480   0.480   0.480   0.480
   148.00    0.480   0.480   0.480   0.480   0.480   0.480   0.480   0.480   0.480   0.480   0.480   0.480   0.480   0.480   0.480   0.480   0.480   0.480   0.480   0.480   0.480   0.480   0.480   0.480   0.480   0.480   0.480   0.480   0.480   0.480   0.480
   143.17    0.480   0.480   0.480   0.480   0.480   0.480   0.480   0.480   0.480   0.480   0.480   0.480   0.480   0.480   0.480   0.480   0.480   0.480   0.480   0.480   0.480   0.480   0.480   0.480   0.480   0.480   0.480   0.480   0.480   0.480   0.480
   138.33    0.480   0.480   0.480   0.480   0.480   0.480   0.480   0.480   0.480   0.480   0.480   0.480   0.480   0.480   0.480   0.480   0.480   0.480   0.480   0.480   0.480   0.480   0.480   0.480   0.480   0.480   0.480   0.480   0.480   0.480   0.480
   133.50    0.480   0.480   0.480   0.480   0.480   0.480   0.480   0.480   0.480   0.480   0.480   0.480   0.480   0.480   0.480   0.480   0.480   0.480   0.480   0.480   0.480   0.480   0.480   0.480   0.480   0.480   0.480   0.480   0.480   0.480   0.480
   128.67    0.480   0.480   0.480   0.480   0.480   0.480   0.480   0.480   0.480   0.480   0.480   0.480   0.480   0.480   0.480   0.480   0.480   0.480   0.480   0.480   0.480   0.480   0.480   0.480   0.480   0.480   0.480   0.480   0.480   0.480   0.480
   123.83    0.480   0.480   0.480   0.480   0.480   0.480   0.480   0.480   0.480   0.480   0.480   0.480   0.480   0.480   0.480   0.480   0.480   0.480   0.480   0.480   0.480   0.480   0.480   0.480   0.480   0.480   0.480   0.480   0.480   0.480   0.480
   119.00    0.480   0.480   0.480   0.480   0.480   0.480   0.480   0.480   0.480   0.480   0.480   0.480   0.480   0.480   0.480   0.480   0.480   0.480   0.480   0.480   0.480   0.480   0.480   0.480   0.480   0.480   0.480   0.480   0.480   0.480   0.480
   114.17    0.480   0.480   0.480   0.480   0.480   0.480   0.480   0.480   0.480   0.480   0.480   0.480   0.480   0.480   0.480   0.480   0.480   0.480   0.480   0.480   0.480   0.480   0.480   0.480   0.480   0.480   0.480   0.480   0.480   0.480   0.480
   109.33    0.480   0.480   0.480   0.480   0.480   0.480   0.480   0.480   0.480   0.480   0.480   0.480   0.480   0.480   0.480   0.480   0.480   0.480   0.480   0.480   0.480   0.480   0.480   0.480   0.480   0.480   0.480   0.480   0.480   0.480   0.480
   104.50    0.480   0.480   0.480   0.480   0.480   0.480   0.480   0.480   0.480   0.480   0.480   0.480   0.480   0.480   0.480   0.480   0.480   0.480   0.480   0.480   0.480   0.480   0.480   0.480   0.480   0.480   0.480   0.480   0.480   0.480   0.480
    99.67    0.480   0.480   0.480   0.480   0.480   0.480   0.480   0.480   0.480   0.480   0.480   0.480   0.480   0.480   0.480   0.480   0.480   0.480   0.480   0.480   0.480   0.480   0.480   0.480   0.480   0.480   0.480   0.480   0.480   0.480   0.480
    94.83    0.480   0.480   0.480   0.480   0.480   0.480   0.480   0.480   0.480   0.480   0.480   0.480   0.480   0.480   0.480   0.480   0.480   0.480   0.480   0.480   0.480   0.480   0.480   0.480   0.480   0.480   0.480   0.480   0.480   0.480   0.480
    90.00    0.480   0.480   0.480   0.480   0.480   0.480   0.480   0.480   0.480   0.480   0.480   0.480   0.480   0.480   0.480   0.480   0.480   0.480   0.480   0.480   0.480   0.480   0.480   0.480   0.480   0.480   0.480   0.480   0.480   0.480   0.480
    85.17    0.480   0.480   0.480   0.480   0.480   0.480   0.480   0.480   0.480   0.480   0.480   0.480   0.480   0.480   0.480   0.480   0.480   0.480   0.480   0.480   0.480   0.480   0.480   0.480   0.480   0.480   0.480   0.480   0.480   0.480   0.480
    80.33    0.480   0.480   0.480   0.480   0.480   0.480   0.480   0.480   0.480   0.480   0.480   0.480   0.480   0.480   0.480   0.480   0.480   0.480   0.480   0.480   0.480   0.480   0.480   0.480   0.480   0.480   0.480   0.480   0.480   0.480   0.480
    75.50    0.480   0.480   0.480   0.480   0.480   0.480   0.480   0.480   0.480   0.480   0.480   0.480   0.480   0.480   0.480   0.480   0.480   0.480   0.480   0.480   0.480   0.480   0.480   0.480   0.480   0.480   0.480   0.480   0.480   0.480   0.480
    70.67    0.480   0.480   0.480   0.480   0.480   0.480   0.480   0.480   0.480   0.480   0.480   0.480   0.480   0.480   0.480   0.480   0.480   0.480   0.480   0.480   0.480   0.480   0.480   0.480   0.480   0.480   0.480   0.480   0.480   0.480   0.480
    65.83    0.480   0.480   0.480   0.480   0.480   0.480   0.480   0.480   0.480   0.480   0.480   0.480   0.480   0.480   0.480   0.480   0.480   0.480   0.480   0.480   0.480   0.480   0.480   0.480   0.480   0.480   0.480   0.480   0.480   0.480   0.480
    61.00    0.480   0.480   0.480   0.480   0.480   0.480   0.480   0.480   0.480   0.480   0.480   0.480   0.480   0.480   0.480   0.480   0.480   0.480   0.480   0.480   0.480   0.480   0.480   0.480   0.480   0.480   0.480   0.480   0.480   0.480   0.480
    56.17    0.480   0.480   0.480   0.480   0.480   0.480   0.480   0.480   0.480   0.480   0.480   0.480   0.480   0.480   0.480   0.480   0.480   0.480   0.480   0.480   0.480   0.480   0.480   0.480   0.480   0.480   0.480   0.480   0.480   0.480   0.480
    51.33    0.480   0.480   0.480   0.480   0.480   0.480   0.480   0.480   0.480   0.480   0.480   0.480   0.480   0.480   0.480   0.480   0.480   0.480   0.480   0.480   0.480   0.480   0.480   0.480   0.480   0.480   0.480   0.480   0.480   0.480   0.480
    46.50    0.480   0.480   0.480   0.480   0.480   0.480   0.480   0.480   0.480   0.480   0.480   0.480   0.480   0.480   0.480   0.480   0.480   0.480   0.480   0.480   0.480   0.480   0.480   0.480   0.480   0.480   0.480   0.480   0.480   0.480   0.480
    41.67    0.480   0.480   0.480   0.480   0.480   0.480   0.480   0.480   0.480   0.480   0.480   0.480   0.480   0.480   0.480   0.480   0.480   0.480   0.480   0.480   0.480   0.480   0.480   0.480   0.480   0.480   0.480   0.480   0.480   0.480   0.480
    36.83    0.480   0.480   0.480   0.480   0.480   0.480   0.480   0.480   0.480   0.480   0.480   0.480   0.480   0.480   0.480   0.480   0.480   0.480   0.480   0.480   0.480   0.480   0.480   0.480   0.480   0.480   0.480   0.480   0.480   0.480   0.480
    32.00    0.480   0.480   0.480   0.480   0.480   0.480   0.480   0.480   0.480   0.480   0.480   0.480   0.480   0.480   0.480   0.480   0.480   0.480   0.480   0.480   0.480   0.480   0.480   0.480   0.480   0.480   0.480   0.480   0.480   0.480   0.480
    27.17    0.480   0.480   0.480   0.480   0.480   0.480   0.480   0.480   0.480   0.480   0.480   0.480   0.480   0.480   0.480   0.480   0.480   0.480   0.480   0.480   0.480   0.480   0.480   0.480   0.480   0.480   0.480   0.480   0.480   0.480   0.480
    22.33    0.480   0.480   0.480   0.480   0.480   0.480   0.480   0.480   0.480   0.480   0.480   0.480   0.480   0.480   0.480   0.480   0.480   0.480   0.480   0.480   0.480   0.480   0.480   0.480   0.480   0.480   0.480   0.480   0.480   0.480   0.480
    17.50    0.480   0.480   0.480   0.480   0.480   0.480   0.480   0.480   0.480   0.480   0.480   0.480   0.480   0.480   0.480   0.480   0.480   0.480   0.480   0.480   0.480   0.480   0.480   0.480   0.480   0.480   0.480   0.480   0.480   0.480   0.480

   Height   Standard deviation at grid points for the v component:
   162.50    0.384   0.384   0.384   0.384   0.384   0.384   0.384   0.384   0.384   0.384   0.384   0.384   0.384   0.384   0.384   0.384   0.384   0.384   0.384   0.384   0.384   0.384   0.384   0.384   0.384   0.384   0.384   0.384   0.384   0.384   0.384
   157.67    0.384   0.384   0.384   0.384   0.384   0.384   0.384   0.384   0.384   0.384   0.384   0.384   0.384   0.384   0.384   0.384   0.384   0.384   0.384   0.384   0.384   0.384   0.384   0.384   0.384   0.384   0.384   0.384   0.384   0.384   0.384
   152.83    0.384   0.384   0.384   0.384   0.384   0.384   0.384   0.384   0.384   0.384   0.384   0.384   0.384   0.384   0.384   0.384   0.384   0.384   0.384   0.384   0.384   0.384   0.384   0.384   0.384   0.384   0.384   0.384   0.384   0.384   0.384
   148.00    0.384   0.384   0.384   0.384   0.384   0.384   0.384   0.384   0.384   0.384   0.384   0.384   0.384   0.384   0.384   0.384   0.384   0.384   0.384   0.384   0.384   0.384   0.384   0.384   0.384   0.384   0.384   0.384   0.384   0.384   0.384
   143.17    0.384   0.384   0.384   0.384   0.384   0.384   0.384   0.384   0.384   0.384   0.384   0.384   0.384   0.384   0.384   0.384   0.384   0.384   0.384   0.384   0.384   0.384   0.384   0.384   0.384   0.384   0.384   0.384   0.384   0.384   0.384
   138.33    0.384   0.384   0.384   0.384   0.384   0.384   0.384   0.384   0.384   0.384   0.384   0.384   0.384   0.384   0.384   0.384   0.384   0.384   0.384   0.384   0.384   0.384   0.384   0.384   0.384   0.384   0.384   0.384   0.384   0.384   0.384
   133.50    0.384   0.384   0.384   0.384   0.384   0.384   0.384   0.384   0.384   0.384   0.384   0.384   0.384   0.384   0.384   0.384   0.384   0.384   0.384   0.384   0.384   0.384   0.384   0.384   0.384   0.384   0.384   0.384   0.384   0.384   0.384
   128.67    0.384   0.384   0.384   0.384   0.384   0.384   0.384   0.384   0.384   0.384   0.384   0.384   0.384   0.384   0.384   0.384   0.384   0.384   0.384   0.384   0.384   0.384   0.384   0.384   0.384   0.384   0.384   0.384   0.384   0.384   0.384
   123.83    0.384   0.384   0.384   0.384   0.384   0.384   0.384   0.384   0.384   0.384   0.384   0.384   0.384   0.384   0.384   0.384   0.384   0.384   0.384   0.384   0.384   0.384   0.384   0.384   0.384   0.384   0.384   0.384   0.384   0.384   0.384
   119.00    0.384   0.384   0.384   0.384   0.384   0.384   0.384   0.384   0.384   0.384   0.384   0.384   0.384   0.384   0.384   0.384   0.384   0.384   0.384   0.384   0.384   0.384   0.384   0.384   0.384   0.384   0.384   0.384   0.384   0.384   0.384
   114.17    0.384   0.384   0.384   0.384   0.384   0.384   0.384   0.384   0.384   0.384   0.384   0.384   0.384   0.384   0.384   0.384   0.384   0.384   0.384   0.384   0.384   0.384   0.384   0.384   0.384   0.384   0.384   0.384   0.384   0.384   0.384
   109.33    0.384   0.384   0.384   0.384   0.384   0.384   0.384   0.384   0.384   0.384   0.384   0.384   0.384   0.384   0.384   0.384   0.384   0.384   0.384   0.384   0.384   0.384   0.384   0.384   0.384   0.384   0.384   0.384   0.384   0.384   0.384
   104.50    0.384   0.384   0.384   0.384   0.384   0.384   0.384   0.384   0.384   0.384   0.384   0.384   0.384   0.384   0.384   0.384   0.384   0.384   0.384   0.384   0.384   0.384   0.384   0.384   0.384   0.384   0.384   0.384   0.384   0.384   0.384
    99.67    0.384   0.384   0.384   0.384   0.384   0.384   0.384   0.384   0.384   0.384   0.384   0.384   0.384   0.384   0.384   0.384   0.384   0.384   0.384   0.384   0.384   0.384   0.384   0.384   0.384   0.384   0.384   0.384   0.384   0.384   0.384
    94.83    0.384   0.384   0.384   0.384   0.384   0.384   0.384   0.384   0.384   0.384   0.384   0.384   0.384   0.384   0.384   0.384   0.384   0.384   0.384   0.384   0.384   0.384   0.384   0.384   0.384   0.384   0.384   0.384   0.384   0.384   0.384
    90.00    0.384   0.384   0.384   0.384   0.384   0.384   0.384   0.384   0.384   0.384   0.384   0.384   0.384   0.384   0.384   0.384   0.384   0.384   0.384   0.384   0.384   0.384   0.384   0.384   0.384   0.384   0.384   0.384   0.384   0.384   0.384
    85.17    0.384   0.384   0.384   0.384   0.384   0.384   0.384   0.384   0.384   0.384   0.384   0.384   0.384   0.384   0.384   0.384   0.384   0.384   0.384   0.384   0.384   0.384   0.384   0.384   0.384   0.384   0.384   0.384   0.384   0.384   0.384
    80.33    0.384   0.384   0.384   0.384   0.384   0.384   0.384   0.384   0.384   0.384   0.384   0.384   0.384   0.384   0.384   0.384   0.384   0.384   0.384   0.384   0.384   0.384   0.384   0.384   0.384   0.384   0.384   0.384   0.384   0.384   0.384
    75.50    0.384   0.384   0.384   0.384   0.384   0.384   0.384   0.384   0.384   0.384   0.384   0.384   0.384   0.384   0.384   0.384   0.384   0.384   0.384   0.384   0.384   0.384   0.384   0.384   0.384   0.384   0.384   0.384   0.384   0.384   0.384
    70.67    0.384   0.384   0.384   0.384   0.384   0.384   0.384   0.384   0.384   0.384   0.384   0.384   0.384   0.384   0.384   0.384   0.384   0.384   0.384   0.384   0.384   0.384   0.384   0.384   0.384   0.384   0.384   0.384   0.384   0.384   0.384
    65.83    0.384   0.384   0.384   0.384   0.384   0.384   0.384   0.384   0.384   0.384   0.384   0.384   0.384   0.384   0.384   0.384   0.384   0.384   0.384   0.384   0.384   0.384   0.384   0.384   0.384   0.384   0.384   0.384   0.384   0.384   0.384
    61.00    0.384   0.384   0.384   0.384   0.384   0.384   0.384   0.384   0.384   0.384   0.384   0.384   0.384   0.384   0.384   0.384   0.384   0.384   0.384   0.384   0.384   0.384   0.384   0.384   0.384   0.384   0.384   0.384   0.384   0.384   0.384
    56.17    0.384   0.384   0.384   0.384   0.384   0.384   0.384   0.384   0.384   0.384   0.384   0.384   0.384   0.384   0.384   0.384   0.384   0.384   0.384   0.384   0.384   0.384   0.384   0.384   0.384   0.384   0.384   0.384   0.384   0.384   0.384
    51.33    0.384   0.384   0.384   0.384   0.384   0.384   0.384   0.384   0.384   0.384   0.384   0.384   0.384   0.384   0.384   0.384   0.384   0.384   0.384   0.384   0.384   0.384   0.384   0.384   0.384   0.384   0.384   0.384   0.384   0.384   0.384
    46.50    0.384   0.384   0.384   0.384   0.384   0.384   0.384   0.384   0.384   0.384   0.384   0.384   0.384   0.384   0.384   0.384   0.384   0.384   0.384   0.384   0.384   0.384   0.384   0.384   0.384   0.384   0.384   0.384   0.384   0.384   0.384
    41.67    0.384   0.384   0.384   0.384   0.384   0.384   0.384   0.384   0.384   0.384   0.384   0.384   0.384   0.384   0.384   0.384   0.384   0.384   0.384   0.384   0.384   0.384   0.384   0.384   0.384   0.384   0.384   0.384   0.384   0.384   0.384
    36.83    0.384   0.384   0.384   0.384   0.384   0.384   0.384   0.384   0.384   0.384   0.384   0.384   0.384   0.384   0.384   0.384   0.384   0.384   0.384   0.384   0.384   0.384   0.384   0.384   0.384   0.384   0.384   0.384   0.384   0.384   0.384
    32.00    0.384   0.384   0.384   0.384   0.384   0.384   0.384   0.384   0.384   0.384   0.384   0.384   0.384   0.384   0.384   0.384   0.384   0.384   0.384   0.384   0.384   0.384   0.384   0.384   0.384   0.384   0.384   0.384   0.384   0.384   0.384
    27.17    0.384   0.384   0.384   0.384   0.384   0.384   0.384   0.384   0.384   0.384   0.384   0.384   0.384   0.384   0.384   0.384   0.384   0.384   0.384   0.384   0.384   0.384   0.384   0.384   0.384   0.384   0.384   0.384   0.384   0.384   0.384
    22.33    0.384   0.384   0.384   0.384   0.384   0.384   0.384   0.384   0.384   0.384   0.384   0.384   0.384   0.384   0.384   0.384   0.384   0.384   0.384   0.384   0.384   0.384   0.384   0.384   0.384   0.384   0.384   0.384   0.384   0.384   0.384
    17.50    0.384   0.384   0.384   0.384   0.384   0.384   0.384   0.384   0.384   0.384   0.384   0.384   0.384   0.384   0.384   0.384   0.384   0.384   0.384   0.384   0.384   0.384   0.384   0.384   0.384   0.384   0.384   0.384   0.384   0.384   0.384

   Height   Standard deviation at grid points for the w component:
   162.50    0.240   0.240   0.240   0.240   0.240   0.240   0.240   0.240   0.240   0.240   0.240   0.240   0.240   0.240   0.240   0.240   0.240   0.240   0.240   0.240   0.240   0.240   0.240   0.240   0.240   0.240   0.240   0.240   0.240   0.240   0.240
   157.67    0.240   0.240   0.240   0.240   0.240   0.240   0.240   0.240   0.240   0.240   0.240   0.240   0.240   0.240   0.240   0.240   0.240   0.240   0.240   0.240   0.240   0.240   0.240   0.240   0.240   0.240   0.240   0.240   0.240   0.240   0.240
   152.83    0.240   0.240   0.240   0.240   0.240   0.240   0.240   0.240   0.240   0.240   0.240   0.240   0.240   0.240   0.240   0.240   0.240   0.240   0.240   0.240   0.240   0.240   0.240   0.240   0.240   0.240   0.240   0.240   0.240   0.240   0.240
   148.00    0.240   0.240   0.240   0.240   0.240   0.240   0.240   0.240   0.240   0.240   0.240   0.240   0.240   0.240   0.240   0.240   0.240   0.240   0.240   0.240   0.240   0.240   0.240   0.240   0.240   0.240   0.240   0.240   0.240   0.240   0.240
   143.17    0.240   0.240   0.240   0.240   0.240   0.240   0.240   0.240   0.240   0.240   0.240   0.240   0.240   0.240   0.240   0.240   0.240   0.240   0.240   0.240   0.240   0.240   0.240   0.240   0.240   0.240   0.240   0.240   0.240   0.240   0.240
   138.33    0.240   0.240   0.240   0.240   0.240   0.240   0.240   0.240   0.240   0.240   0.240   0.240   0.240   0.240   0.240   0.240   0.240   0.240   0.240   0.240   0.240   0.240   0.240   0.240   0.240   0.240   0.240   0.240   0.240   0.240   0.240
   133.50    0.240   0.240   0.240   0.240   0.240   0.240   0.240   0.240   0.240   0.240   0.240   0.240   0.240   0.240   0.240   0.240   0.240   0.240   0.240   0.240   0.240   0.240   0.240   0.240   0.240   0.240   0.240   0.240   0.240   0.240   0.240
   128.67    0.240   0.240   0.240   0.240   0.240   0.240   0.240   0.240   0.240   0.240   0.240   0.240   0.240   0.240   0.240   0.240   0.240   0.240   0.240   0.240   0.240   0.240   0.240   0.240   0.240   0.240   0.240   0.240   0.240   0.240   0.240
   123.83    0.240   0.240   0.240   0.240   0.240   0.240   0.240   0.240   0.240   0.240   0.240   0.240   0.240   0.240   0.240   0.240   0.240   0.240   0.240   0.240   0.240   0.240   0.240   0.240   0.240   0.240   0.240   0.240   0.240   0.240   0.240
   119.00    0.240   0.240   0.240   0.240   0.240   0.240   0.240   0.240   0.240   0.240   0.240   0.240   0.240   0.240   0.240   0.240   0.240   0.240   0.240   0.240   0.240   0.240   0.240   0.240   0.240   0.240   0.240   0.240   0.240   0.240   0.240
   114.17    0.240   0.240   0.240   0.240   0.240   0.240   0.240   0.240   0.240   0.240   0.240   0.240   0.240   0.240   0.240   0.240   0.240   0.240   0.240   0.240   0.240   0.240   0.240   0.240   0.240   0.240   0.240   0.240   0.240   0.240   0.240
   109.33    0.240   0.240   0.240   0.240   0.240   0.240   0.240   0.240   0.240   0.240   0.240   0.240   0.240   0.240   0.240   0.240   0.240   0.240   0.240   0.240   0.240   0.240   0.240   0.240   0.240   0.240   0.240   0.240   0.240   0.240   0.240
   104.50    0.240   0.240   0.240   0.240   0.240   0.240   0.240   0.240   0.240   0.240   0.240   0.240   0.240   0.240   0.240   0.240   0.240   0.240   0.240   0.240   0.240   0.240   0.240   0.240   0.240   0.240   0.240   0.240   0.240   0.240   0.240
    99.67    0.240   0.240   0.240   0.240   0.240   0.240   0.240   0.240   0.240   0.240   0.240   0.240   0.240   0.240   0.240   0.240   0.240   0.240   0.240   0.240   0.240   0.240   0.240   0.240   0.240   0.240   0.240   0.240   0.240   0.240   0.240
    94.83    0.240   0.240   0.240   0.240   0.240   0.240   0.240   0.240   0.240   0.240   0.240   0.240   0.240   0.240   0.240   0.240   0.240   0.240   0.240   0.240   0.240   0.240   0.240   0.240   0.240   0.240   0.240   0.240   0.240   0.240   0.240
    90.00    0.240   0.240   0.240   0.240   0.240   0.240   0.240   0.240   0.240   0.240   0.240   0.240   0.240   0.240   0.240   0.240   0.240   0.240   0.240   0.240   0.240   0.240   0.240   0.240   0.240   0.240   0.240   0.240   0.240   0.240   0.240
    85.17    0.240   0.240   0.240   0.240   0.240   0.240   0.240   0.240   0.240   0.240   0.240   0.240   0.240   0.240   0.240   0.240   0.240   0.240   0.240   0.240   0.240   0.240   0.240   0.240   0.240   0.240   0.240   0.240   0.240   0.240   0.240
    80.33    0.240   0.240   0.240   0.240   0.240   0.240   0.240   0.240   0.240   0.240   0.240   0.240   0.240   0.240   0.240   0.240   0.240   0.240   0.240   0.240   0.240   0.240   0.240   0.240   0.240   0.240   0.240   0.240   0.240   0.240   0.240
    75.50    0.240   0.240   0.240   0.240   0.240   0.240   0.240   0.240   0.240   0.240   0.240   0.240   0.240   0.240   0.240   0.240   0.240   0.240   0.240   0.240   0.240   0.240   0.240   0.240   0.240   0.240   0.240   0.240   0.240   0.240   0.240
    70.67    0.240   0.240   0.240   0.240   0.240   0.240   0.240   0.240   0.240   0.240   0.240   0.240   0.240   0.240   0.240   0.240   0.240   0.240   0.240   0.240   0.240   0.240   0.240   0.240   0.240   0.240   0.240   0.240   0.240   0.240   0.240
    65.83    0.240   0.240   0.240   0.240   0.240   0.240   0.240   0.240   0.240   0.240   0.240   0.240   0.240   0.240   0.240   0.240   0.240   0.240   0.240   0.240   0.240   0.240   0.240   0.240   0.240   0.240   0.240   0.240   0.240   0.240   0.240
    61.00    0.240   0.240   0.240   0.240   0.240   0.240   0.240   0.240   0.240   0.240   0.240   0.240   0.240   0.240   0.240   0.240   0.240   0.240   0.240   0.240   0.240   0.240   0.240   0.240   0.240   0.240   0.240   0.240   0.240   0.240   0.240
    56.17    0.240   0.240   0.240   0.240   0.240   0.240   0.240   0.240   0.240   0.240   0.240   0.240   0.240   0.240   0.240   0.240   0.240   0.240   0.240   0.240   0.240   0.240   0.240   0.240   0.240   0.240   0.240   0.240   0.240   0.240   0.240
    51.33    0.240   0.240   0.240   0.240   0.240   0.240   0.240   0.240   0.240   0.240   0.240   0.240   0.240   0.240   0.240   0.240   0.240   0.240   0.240   0.240   0.240   0.240   0.240   0.240   0.240   0.240   0.240   0.240   0.240   0.240   0.240
    46.50    0.240   0.240   0.240   0.240   0.240   0.240   0.240   0.240   0.240   0.240   0.240   0.240   0.240   0.240   0.240   0.240   0.240   0.240   0.240   0.240   0.240   0.240   0.240   0.240   0.240   0.240   0.240   0.240   0.240   0.240   0.240
    41.67    0.240   0.240   0.240   0.240   0.240   0.240   0.240   0.240   0.240   0.240   0.240   0.240   0.240   0.240   0.240   0.240   0.240   0.240   0.240   0.240   0.240   0.240   0.240   0.240   0.240   0.240   0.240   0.240   0.240   0.240   0.240
    36.83    0.240   0.240   0.240   0.240   0.240   0.240   0.240   0.240   0.240   0.240   0.240   0.240   0.240   0.240   0.240   0.240   0.240   0.240   0.240   0.240   0.240   0.240   0.240   0.240   0.240   0.240   0.240   0.240   0.240   0.240   0.240
    32.00    0.240   0.240   0.240   0.240   0.240   0.240   0.240   0.240   0.240   0.240   0.240   0.240   0.240   0.240   0.240   0.240   0.240   0.240   0.240   0.240   0.240   0.240   0.240   0.240   0.240   0.240   0.240   0.240   0.240   0.240   0.240
    27.17    0.240   0.240   0.240   0.240   0.240   0.240   0.240   0.240   0.240   0.240   0.240   0.240   0.240   0.240   0.240   0.240   0.240   0.240   0.240   0.240   0.240   0.240   0.240   0.240   0.240   0.240   0.240   0.240   0.240   0.240   0.240
    22.33    0.240   0.240   0.240   0.240   0.240   0.240   0.240   0.240   0.240   0.240   0.240   0.240   0.240   0.240   0.240   0.240   0.240   0.240   0.240   0.240   0.240   0.240   0.240   0.240   0.240   0.240   0.240   0.240   0.240   0.240   0.240
    17.50    0.240   0.240   0.240   0.240   0.240   0.240   0.240   0.240   0.240   0.240   0.240   0.240   0.240   0.240   0.240   0.240   0.240   0.240   0.240   0.240   0.240   0.240   0.240   0.240   0.240   0.240   0.240   0.240   0.240   0.240   0.240

   Mean standard deviation across all grid points:
      u component:    0.480 m/s
      v component:    0.384 m/s
      w component:    0.240 m/s


U-component (X) statistics from the interpolated hub point:

   Mean =   6.0000 m/s
   TI   =   8.0000 %


Processing complete.  24.406 CPU seconds used.
